EESchema Schematic File Version 2  date 5/5/2013 3:54:39 PM
LIBS:power
LIBS:device
LIBS:transistors
LIBS:conn
LIBS:linear
LIBS:regul
LIBS:74xx
LIBS:cmos4000
LIBS:adc-dac
LIBS:memory
LIBS:xilinx
LIBS:special
LIBS:microcontrollers
LIBS:dsp
LIBS:microchip
LIBS:analog_switches
LIBS:motorola
LIBS:texas
LIBS:intel
LIBS:audio
LIBS:interface
LIBS:digital-audio
LIBS:philips
LIBS:display
LIBS:cypress
LIBS:siliconi
LIBS:opto
LIBS:atmel
LIBS:contrib
LIBS:valves
LIBS:AeroDyne
LIBS:SiPMCosmicRay-cache
EELAYER 25  0
EELAYER END
$Descr A4 11700 8267
encoding utf-8
Sheet 4 7
Title "Cosmic Ray Detector"
Date "5 may 2013"
Rev "1A"
Comp "Ethan Harstad"
Comment1 "https://github.com/ethanharstad/SiPMCosmicRay"
Comment2 "CC-BY-SA 3.0 License"
Comment3 ""
Comment4 ""
$EndDescr
Text Notes 10800 2000 2    60   ~ 0
Standard Output
Text Notes 10600 800  2    60   ~ 0
Fast Mode Output
Text Notes 7800 1900 1    60   ~ 0
Fiber Optic\nDevice Mount
Text Notes 5500 4600 2    60   ~ 12
Bias Supply
Text Notes 5700 4600 0    60   ~ 12
Detector/Amplifier
Wire Notes Line
	5600 2500 5600 4700
Wire Wire Line
	1300 1400 1400 1400
Wire Wire Line
	1300 1300 1400 1300
Wire Wire Line
	1300 1200 1400 1200
Connection ~ 10700 900 
Wire Wire Line
	10700 800  10700 900 
Wire Wire Line
	10700 800  10800 800 
Connection ~ 5300 2100
Wire Wire Line
	5300 2000 5300 2200
Wire Wire Line
	4500 3700 4600 3700
Connection ~ 4900 2100
Wire Wire Line
	4900 2700 4900 2600
Connection ~ 3900 2100
Wire Wire Line
	4100 2100 3300 2100
Connection ~ 3900 2500
Wire Wire Line
	4400 2500 3900 2500
Wire Wire Line
	4400 2500 4400 2650
Connection ~ 3900 3700
Wire Wire Line
	3900 3100 3900 3800
Wire Wire Line
	3500 3600 3500 3500
Connection ~ 3500 3000
Wire Wire Line
	3500 3000 3300 3000
Connection ~ 2800 2100
Wire Wire Line
	2800 2700 2800 2100
Wire Wire Line
	2800 2700 2900 2700
Wire Wire Line
	2400 2750 2400 3100
Wire Wire Line
	3500 2600 3500 3100
Wire Wire Line
	2900 2100 2400 2100
Wire Wire Line
	2400 2100 2400 2350
Connection ~ 2800 3700
Wire Wire Line
	2800 3800 2800 3700
Wire Wire Line
	2800 4300 2800 4200
Wire Wire Line
	800  3600 800  3500
Connection ~ 1200 3000
Wire Wire Line
	1200 3000 1200 3100
Connection ~ 800  3000
Wire Wire Line
	1700 3000 800  3000
Wire Wire Line
	10800 2300 10600 2300
Wire Wire Line
	6400 1100 9300 1100
Wire Wire Line
	8300 2100 8800 2100
Wire Wire Line
	8700 2650 8700 1300
Wire Wire Line
	8200 3100 8200 3200
Connection ~ 7200 2100
Wire Wire Line
	7200 2200 7200 2100
Wire Wire Line
	6600 2600 6600 2700
Wire Wire Line
	7200 1600 7200 1700
Connection ~ 6600 1100
Wire Wire Line
	6600 1100 6600 1200
Wire Wire Line
	7700 2100 6400 2100
Connection ~ 10000 1800
Wire Wire Line
	10000 1300 10000 2300
Wire Wire Line
	10000 1300 9850 1300
Connection ~ 8700 2100
Wire Wire Line
	9400 1800 8700 1800
Connection ~ 8200 2500
Wire Wire Line
	8200 2600 8200 2500
Connection ~ 10000 2300
Wire Wire Line
	9900 1800 10000 1800
Wire Wire Line
	9800 2300 10100 2300
Wire Wire Line
	7700 2500 7700 2650
Wire Wire Line
	8700 1300 9450 1300
Connection ~ 8700 1800
Wire Wire Line
	9300 1100 9300 1900
Wire Wire Line
	6600 1700 6600 1600
Wire Wire Line
	7200 1200 7200 1100
Connection ~ 7200 1100
Wire Wire Line
	7200 2600 7200 2700
Wire Wire Line
	6600 2100 6600 2200
Connection ~ 6600 2100
Wire Wire Line
	7700 3200 7700 3050
Wire Wire Line
	9300 2700 9300 2800
Wire Wire Line
	8700 3200 8700 3050
Wire Wire Line
	8800 2500 7700 2500
Wire Wire Line
	8000 900  8000 1900
Wire Wire Line
	10800 900  8000 900 
Wire Wire Line
	5700 1000 5700 1100
Wire Wire Line
	5700 1100 5800 1100
Wire Wire Line
	800  3100 800  2900
Wire Wire Line
	1600 3100 1600 3000
Connection ~ 1600 3000
Wire Wire Line
	1200 3600 1200 3700
Wire Wire Line
	1200 3700 1300 3700
Wire Wire Line
	2000 4200 2000 4100
Wire Wire Line
	2900 3700 2700 3700
Wire Wire Line
	2800 3600 2800 3500
Wire Wire Line
	2900 3000 2300 3000
Connection ~ 2400 3000
Wire Wire Line
	2800 3100 2800 3000
Connection ~ 2800 3000
Wire Wire Line
	3500 2100 3500 2200
Wire Wire Line
	3300 2700 3500 2700
Connection ~ 3500 2700
Wire Wire Line
	3900 2600 3900 2100
Connection ~ 3500 2100
Wire Wire Line
	3900 4400 3900 4300
Wire Wire Line
	3400 3700 4000 3700
Wire Wire Line
	4400 3050 4400 3200
Wire Wire Line
	4400 3200 3900 3200
Connection ~ 3900 3200
Wire Wire Line
	4900 2100 4900 2200
Wire Wire Line
	5300 2800 5300 2700
Wire Wire Line
	1400 1500 1300 1500
Wire Wire Line
	1300 1500 1300 1600
Wire Wire Line
	5800 2100 4600 2100
Wire Wire Line
	10800 2200 10700 2200
Wire Wire Line
	10700 2200 10700 2300
Connection ~ 10700 2300
Wire Notes Line
	600  4700 11100 4700
Text Label 1300 1400 2    60   ~ 0
HS
Text Label 1300 1300 2    60   ~ 0
Det
Text Label 10800 2200 0    60   ~ 0
Det
Text Label 10800 800  0    60   ~ 0
HS
Text Label 1300 1200 2    60   ~ 0
VBias
Text Label 5300 2000 1    60   ~ 0
VBias
$Comp
L GND #PWR49
U 1 1 51707897
P 1300 1600
F 0 "#PWR49" H 1300 1600 30  0001 C CNN
F 1 "GND" H 1300 1530 30  0001 C CNN
	1    1300 1600
	1    0    0    -1  
$EndComp
$Comp
L CONN_4 TP1
U 1 1 51707852
P 1750 1350
F 0 "TP1" V 1700 1350 50  0000 C CNN
F 1 "TP_Det" V 1800 1350 50  0000 C CNN
	1    1750 1350
	1    0    0    -1  
$EndComp
$Comp
L R R12
U 1 1 517076F2
P 4250 3700
F 0 "R12" V 4330 3700 50  0000 C CNN
F 1 "R" V 4250 3700 50  0000 C CNN
F 4 "1%" V 4150 3700 60  0000 C CNN "Tolerance"
	1    4250 3700
	0    1    -1   0   
$EndComp
$Comp
L R R11
U 1 1 517076EE
P 3900 4050
F 0 "R11" V 3980 4050 50  0000 C CNN
F 1 "R" V 3900 4050 50  0000 C CNN
F 4 "1%" V 3800 4050 60  0000 C CNN "Tolerance"
	1    3900 4050
	1    0    0    -1  
$EndComp
Text HLabel 4600 3700 2    60   Input ~ 0
BiasSet
Text HLabel 10800 900  2    60   Output ~ 0
HS
Text HLabel 10800 2300 2    60   Output ~ 0
Det
$Comp
L GND #PWR56
U 1 1 516B889A
P 5300 2800
F 0 "#PWR56" H 5300 2800 30  0001 C CNN
F 1 "GND" H 5300 2730 30  0001 C CNN
	1    5300 2800
	1    0    0    -1  
$EndComp
$Comp
L R R14
U 1 1 516B8890
P 5300 2450
F 0 "R14" V 5380 2450 50  0000 C CNN
F 1 "R" V 5300 2450 50  0000 C CNN
	1    5300 2450
	1    0    0    -1  
$EndComp
$Comp
L GND #PWR55
U 1 1 516B888C
P 4900 2700
F 0 "#PWR55" H 4900 2700 30  0001 C CNN
F 1 "GND" H 4900 2630 30  0001 C CNN
	1    4900 2700
	1    0    0    -1  
$EndComp
$Comp
L C C21
U 1 1 516B8879
P 4900 2400
F 0 "C21" H 4950 2500 50  0000 L CNN
F 1 "0.1uF" H 4950 2300 50  0000 L CNN
F 4 "50V" H 4850 2300 60  0000 R CNN "Voltage"
F 5 "X5R" H 4850 2500 60  0000 R CNN "Dielectric"
	1    4900 2400
	-1   0    0    -1  
$EndComp
$Comp
L R R13
U 1 1 516B8817
P 4350 2100
F 0 "R13" V 4430 2100 50  0000 C CNN
F 1 "R" V 4350 2100 50  0000 C CNN
	1    4350 2100
	0    -1   -1   0   
$EndComp
$Comp
L C C20
U 1 1 516B87D5
P 4400 2850
F 0 "C20" H 4450 2950 50  0000 L CNN
F 1 "0.15uF" H 4450 2750 50  0000 L CNN
F 4 "50V" H 4350 2750 60  0000 R CNN "Voltage"
F 5 "X5R" H 4350 2950 60  0000 R CNN "Dielectric"
	1    4400 2850
	-1   0    0    -1  
$EndComp
$Comp
L GND #PWR54
U 1 1 516B87A4
P 3900 4400
F 0 "#PWR54" H 3900 4400 30  0001 C CNN
F 1 "GND" H 3900 4330 30  0001 C CNN
	1    3900 4400
	1    0    0    -1  
$EndComp
$Comp
L R R10
U 1 1 516B879C
P 3900 2850
F 0 "R10" V 3980 2850 50  0000 C CNN
F 1 "R" V 3900 2850 50  0000 C CNN
F 4 "1%" V 3800 2850 60  0000 C CNN "Tolerance"
	1    3900 2850
	1    0    0    -1  
$EndComp
$Comp
L GND #PWR53
U 1 1 516B8750
P 3500 3600
F 0 "#PWR53" H 3500 3600 30  0001 C CNN
F 1 "GND" H 3500 3530 30  0001 C CNN
	1    3500 3600
	1    0    0    -1  
$EndComp
$Comp
L DIODESCH D3
U 1 1 516B874A
P 2800 4000
F 0 "D3" H 2800 4100 40  0000 C CNN
F 1 "MBR0540" H 2800 3900 40  0000 C CNN
	1    2800 4000
	0    -1   -1   0   
$EndComp
$Comp
L DIODESCH D2
U 1 1 516B8747
P 2800 3300
F 0 "D2" H 2800 3400 40  0000 C CNN
F 1 "MBR0540" H 2800 3200 40  0000 C CNN
	1    2800 3300
	0    -1   -1   0   
$EndComp
$Comp
L DIODESCH D5
U 1 1 516B873D
P 3100 2700
F 0 "D5" H 3100 2800 40  0000 C CNN
F 1 "MBR0540" H 3100 2600 40  0000 C CNN
	1    3100 2700
	-1   0    0    -1  
$EndComp
$Comp
L DIODESCH D4
U 1 1 516B873B
P 3100 2100
F 0 "D4" H 3100 2200 40  0000 C CNN
F 1 "MBR0540" H 3100 2000 40  0000 C CNN
	1    3100 2100
	1    0    0    -1  
$EndComp
$Comp
L C C18
U 1 1 516B86EC
P 3500 2400
F 0 "C18" H 3550 2500 50  0000 L CNN
F 1 "1uF" H 3550 2300 50  0000 L CNN
F 4 "50V" H 3450 2300 60  0000 R CNN "Voltage"
F 5 "X5R" H 3450 2500 60  0000 R CNN "Dielectric"
	1    3500 2400
	-1   0    0    -1  
$EndComp
$Comp
L C C19
U 1 1 516B869E
P 3500 3300
F 0 "C19" H 3550 3400 50  0000 L CNN
F 1 "1uF" H 3550 3200 50  0000 L CNN
F 4 "50V" H 3450 3200 60  0000 R CNN "Voltage"
F 5 "X5R" H 3450 3400 60  0000 R CNN "Dielectric"
	1    3500 3300
	-1   0    0    -1  
$EndComp
$Comp
L C C17
U 1 1 516B8681
P 2400 2550
F 0 "C17" H 2450 2650 50  0000 L CNN
F 1 "0.15uF" H 2450 2450 50  0000 L CNN
F 4 "50V" H 2350 2450 60  0000 R CNN "Voltage"
F 5 "X5R" H 2350 2650 60  0000 R CNN "Dielectric"
	1    2400 2550
	-1   0    0    -1  
$EndComp
$Comp
L DIODESCH D6
U 1 1 516B866C
P 3100 3000
F 0 "D6" H 3100 3100 40  0000 C CNN
F 1 "MBR0540" H 3100 2900 40  0000 C CNN
	1    3100 3000
	1    0    0    -1  
$EndComp
$Comp
L GND #PWR51
U 1 1 516B8664
P 2800 3600
F 0 "#PWR51" H 2800 3600 30  0001 C CNN
F 1 "GND" H 2800 3530 30  0001 C CNN
	1    2800 3600
	1    0    0    -1  
$EndComp
$Comp
L R R9
U 1 1 516B8651
P 3150 3700
F 0 "R9" V 3230 3700 50  0000 C CNN
F 1 "R" V 3150 3700 50  0000 C CNN
	1    3150 3700
	0    -1   -1   0   
$EndComp
$Comp
L GND #PWR52
U 1 1 516B864C
P 2800 4300
F 0 "#PWR52" H 2800 4300 30  0001 C CNN
F 1 "GND" H 2800 4230 30  0001 C CNN
	1    2800 4300
	1    0    0    -1  
$EndComp
$Comp
L GND #PWR50
U 1 1 516B8644
P 2000 4200
F 0 "#PWR50" H 2000 4200 30  0001 C CNN
F 1 "GND" H 2000 4130 30  0001 C CNN
	1    2000 4200
	1    0    0    -1  
$EndComp
$Comp
L GND #PWR48
U 1 1 516B863E
P 800 3600
F 0 "#PWR48" H 800 3600 30  0001 C CNN
F 1 "GND" H 800 3530 30  0001 C CNN
	1    800  3600
	1    0    0    -1  
$EndComp
$Comp
L +BATT #PWR47
U 1 1 516B8629
P 800 2900
F 0 "#PWR47" H 800 2850 20  0001 C CNN
F 1 "+BATT" H 800 3000 30  0000 C CNN
	1    800  2900
	1    0    0    -1  
$EndComp
$Comp
L C C16
U 1 1 516B8616
P 800 3300
F 0 "C16" H 850 3400 50  0000 L CNN
F 1 "4.7uF" H 850 3200 50  0000 L CNN
F 4 "16V" H 750 3200 60  0000 R CNN "Voltage"
F 5 "X5R" H 750 3400 60  0000 R CNN "Dielectric"
	1    800  3300
	-1   0    0    -1  
$EndComp
$Comp
L R R8
U 1 1 516B8607
P 1200 3350
F 0 "R8" V 1280 3350 50  0000 C CNN
F 1 "R" V 1200 3350 50  0000 C CNN
	1    1200 3350
	1    0    0    -1  
$EndComp
$Comp
L INDUCTOR L2
U 1 1 516B85D4
P 2000 3000
F 0 "L2" V 1950 3000 40  0000 C CNN
F 1 "INDUCTOR" V 2100 3000 40  0000 C CNN
	1    2000 3000
	0    -1   -1   0   
$EndComp
$Comp
L LT1930 U7
U 1 1 516B85CE
P 2000 3600
F 0 "U7" H 2000 3750 60  0000 C CNN
F 1 "LT1930" H 2000 3650 60  0000 C CNN
	1    2000 3600
	1    0    0    -1  
$EndComp
$Comp
L OPA381 U8
U 1 1 516B750C
P 9300 2300
F 0 "U8" H 9600 2500 60  0000 C CNN
F 1 "OPA380" H 9600 2100 60  0000 C CNN
	1    9300 2300
	1    0    0    -1  
$EndComp
$Comp
L R R15
U 1 1 516B750B
P 8200 2850
F 0 "R15" V 8280 2850 50  0000 C CNN
F 1 "R" V 8200 2850 50  0000 C CNN
	1    8200 2850
	-1   0    0    -1  
$EndComp
$Comp
L R R16
U 1 1 516B750A
P 9650 1800
F 0 "R16" V 9730 1800 50  0000 C CNN
F 1 "R" V 9650 1800 50  0000 C CNN
F 4 "1%" V 9550 1800 60  0000 C CNN "Tolerance"
	1    9650 1800
	0    -1   -1   0   
$EndComp
$Comp
L R R17
U 1 1 516B7509
P 10350 2300
F 0 "R17" V 10430 2300 50  0000 C CNN
F 1 "R" V 10350 2300 50  0000 C CNN
	1    10350 2300
	0    -1   -1   0   
$EndComp
$Comp
L PHOTODIODE D7
U 1 1 516B7508
P 8000 2100
F 0 "D7" H 8000 2400 60  0000 C CNN
F 1 "uFB10035-X18" H 8000 2300 60  0000 C CNN
	1    8000 2100
	-1   0    0    1   
$EndComp
$Comp
L FERRITE FB1
U 1 1 516B7507
P 6100 1100
F 0 "FB1" H 6000 1200 60  0000 C CNN
F 1 "FERRITE" H 6200 1000 60  0000 C CNN
	1    6100 1100
	1    0    0    -1  
$EndComp
$Comp
L C C22
U 1 1 516B7506
P 6600 1400
F 0 "C22" H 6650 1500 50  0000 L CNN
F 1 "0.1uF" H 6650 1300 50  0000 L CNN
F 4 "16V" H 6550 1300 60  0000 R CNN "Voltage"
F 5 "X5R" H 6550 1500 60  0000 R CNN "Dielectric"
	1    6600 1400
	-1   0    0    -1  
$EndComp
$Comp
L C C24
U 1 1 516B7505
P 7200 1400
F 0 "C24" H 7250 1500 50  0000 L CNN
F 1 "0.01uF" H 7250 1300 50  0000 L CNN
F 4 "16V" H 7150 1300 60  0000 R CNN "Voltage"
F 5 "X5R" H 7150 1500 60  0000 R CNN "Dielectric"
	1    7200 1400
	-1   0    0    -1  
$EndComp
$Comp
L GND #PWR60
U 1 1 516B7504
P 7200 1700
F 0 "#PWR60" H 7200 1700 30  0001 C CNN
F 1 "GND" H 7200 1630 30  0001 C CNN
	1    7200 1700
	1    0    0    -1  
$EndComp
$Comp
L GND #PWR58
U 1 1 516B7503
P 6600 1700
F 0 "#PWR58" H 6600 1700 30  0001 C CNN
F 1 "GND" H 6600 1630 30  0001 C CNN
	1    6600 1700
	1    0    0    -1  
$EndComp
$Comp
L C C23
U 1 1 516B7502
P 6600 2400
F 0 "C23" H 6650 2500 50  0000 L CNN
F 1 "0.1uF" H 6650 2300 50  0000 L CNN
F 4 "50V" H 6550 2300 60  0000 R CNN "Voltage"
F 5 "X5R" H 6550 2500 60  0000 R CNN "Dielectric"
	1    6600 2400
	-1   0    0    -1  
$EndComp
$Comp
L C C25
U 1 1 516B7501
P 7200 2400
F 0 "C25" H 7250 2500 50  0000 L CNN
F 1 "0.01uF" H 7250 2300 50  0000 L CNN
F 4 "50V" H 7150 2300 60  0000 R CNN "Voltage"
F 5 "X5R" H 7150 2500 60  0000 R CNN "Dielectric"
	1    7200 2400
	-1   0    0    -1  
$EndComp
$Comp
L GND #PWR59
U 1 1 516B7500
P 6600 2700
F 0 "#PWR59" H 6600 2700 30  0001 C CNN
F 1 "GND" H 6600 2630 30  0001 C CNN
	1    6600 2700
	1    0    0    -1  
$EndComp
$Comp
L GND #PWR61
U 1 1 516B74FF
P 7200 2700
F 0 "#PWR61" H 7200 2700 30  0001 C CNN
F 1 "GND" H 7200 2630 30  0001 C CNN
	1    7200 2700
	1    0    0    -1  
$EndComp
$Comp
L GND #PWR65
U 1 1 516B74FE
P 9300 2800
F 0 "#PWR65" H 9300 2800 30  0001 C CNN
F 1 "GND" H 9300 2730 30  0001 C CNN
	1    9300 2800
	1    0    0    -1  
$EndComp
$Comp
L GND #PWR63
U 1 1 516B74FD
P 8200 3200
F 0 "#PWR63" H 8200 3200 30  0001 C CNN
F 1 "GND" H 8200 3130 30  0001 C CNN
	1    8200 3200
	1    0    0    -1  
$EndComp
$Comp
L GND #PWR62
U 1 1 516B74FC
P 7700 3200
F 0 "#PWR62" H 7700 3200 30  0001 C CNN
F 1 "GND" H 7700 3130 30  0001 C CNN
	1    7700 3200
	1    0    0    -1  
$EndComp
$Comp
L C C27
U 1 1 516B74FB
P 8700 2850
F 0 "C27" H 8750 2950 50  0000 L CNN
F 1 "100pF" H 8750 2750 50  0000 L CNN
F 4 "50V" H 8650 2750 60  0000 R CNN "Voltage"
F 5 "X5R" H 8650 2950 60  0000 R CNN "Dielectric"
	1    8700 2850
	-1   0    0    -1  
$EndComp
$Comp
L C C26
U 1 1 516B74FA
P 7700 2850
F 0 "C26" H 7750 2950 50  0000 L CNN
F 1 "C" H 7750 2750 50  0000 L CNN
F 4 "?V" H 7650 2750 60  0000 R CNN "Voltage"
F 5 "X5R" H 7650 2950 60  0000 R CNN "Dielectric"
	1    7700 2850
	-1   0    0    -1  
$EndComp
$Comp
L GND #PWR64
U 1 1 516B74F9
P 8700 3200
F 0 "#PWR64" H 8700 3200 30  0001 C CNN
F 1 "GND" H 8700 3130 30  0001 C CNN
	1    8700 3200
	1    0    0    -1  
$EndComp
$Comp
L C C28
U 1 1 516B74F8
P 9650 1300
F 0 "C28" H 9700 1400 50  0000 L CNN
F 1 "C" H 9700 1200 50  0000 L CNN
F 4 "16V" H 9600 1200 60  0000 R CNN "Voltage"
F 5 "X5R" H 9600 1400 60  0000 R CNN "Dielectric"
	1    9650 1300
	0    -1   1    0   
$EndComp
Text Notes 8800 3100 0    60   Italic 0
Optional:\nOmit if not using fast mode
$Comp
L +5VA #PWR57
U 1 1 516B74F7
P 5700 1000
F 0 "#PWR57" H 5700 1130 20  0001 C CNN
F 1 "+5VA" H 5700 1100 30  0000 C CNN
	1    5700 1000
	1    0    0    -1  
$EndComp
Text Notes 6500 1000 0    60   ~ 0
Power Supply
Text Notes 6500 2000 0    60   ~ 0
Bias Supply
$Comp
L FERRITE FB2
U 1 1 516B74F6
P 6100 2100
F 0 "FB2" H 6000 2200 60  0000 C CNN
F 1 "FERRITE" H 6200 2000 60  0000 C CNN
	1    6100 2100
	1    0    0    -1  
$EndComp
$EndSCHEMATC
