EESchema Schematic File Version 2  date 4/15/2013 9:49:50 PM
LIBS:power
LIBS:device
LIBS:transistors
LIBS:conn
LIBS:linear
LIBS:regul
LIBS:74xx
LIBS:cmos4000
LIBS:adc-dac
LIBS:memory
LIBS:xilinx
LIBS:special
LIBS:microcontrollers
LIBS:dsp
LIBS:microchip
LIBS:analog_switches
LIBS:motorola
LIBS:texas
LIBS:intel
LIBS:audio
LIBS:interface
LIBS:digital-audio
LIBS:philips
LIBS:display
LIBS:cypress
LIBS:siliconi
LIBS:opto
LIBS:atmel
LIBS:contrib
LIBS:valves
LIBS:AeroDyne
LIBS:SiPMCosmicRay-cache
EELAYER 25  0
EELAYER END
$Descr A4 11700 8267
encoding utf-8
Sheet 4 5
Title "Cosmic Ray Detector"
Date "16 apr 2013"
Rev "1A"
Comp "Ethan Harstad"
Comment1 "https://github.com/ethanharstad/SiPMCosmicRay"
Comment2 "CC-BY-SA 3.0 License"
Comment3 ""
Comment4 ""
$EndDescr
Connection ~ 4900 3300
Wire Wire Line
	4900 3200 4900 3300
Wire Wire Line
	4900 3300 4900 3450
Wire Wire Line
	4600 3700 4750 3700
Wire Wire Line
	5200 3500 5200 3300
Wire Wire Line
	5200 3300 4900 3300
Wire Wire Line
	5400 2800 5400 2700
Wire Wire Line
	5000 2200 5000 2100
Connection ~ 4000 3200
Wire Wire Line
	4000 3200 4500 3200
Wire Wire Line
	4500 3200 4500 3050
Wire Wire Line
	4100 3700 4000 3700
Wire Wire Line
	4000 3700 3500 3700
Wire Wire Line
	4000 4400 4000 4300
Connection ~ 3600 2100
Wire Wire Line
	4000 2100 4000 2500
Wire Wire Line
	4000 2500 4000 2600
Connection ~ 3600 2700
Wire Wire Line
	3600 2700 3400 2700
Wire Wire Line
	3600 2200 3600 2100
Connection ~ 2900 3000
Wire Wire Line
	2900 3000 2900 3100
Connection ~ 2500 3000
Wire Wire Line
	2400 3000 2500 3000
Wire Wire Line
	2500 3000 2900 3000
Wire Wire Line
	2900 3000 3000 3000
Wire Wire Line
	2900 3600 2900 3500
Wire Wire Line
	2800 3700 2900 3700
Wire Wire Line
	2900 3700 3000 3700
Wire Wire Line
	2100 4200 2100 4100
Wire Wire Line
	1400 3700 1300 3700
Wire Wire Line
	1300 3700 1300 3600
Connection ~ 1700 3000
Wire Wire Line
	1700 3000 1700 3100
Wire Wire Line
	900  2900 900  3000
Wire Wire Line
	900  3000 900  3100
Wire Wire Line
	5800 1100 5700 1100
Wire Wire Line
	5700 1100 5700 1000
Wire Wire Line
	10700 900  8000 900 
Wire Wire Line
	8000 900  8000 1900
Wire Wire Line
	8800 2500 8200 2500
Wire Wire Line
	8200 2500 7700 2500
Wire Wire Line
	8700 3200 8700 3050
Wire Wire Line
	9300 2700 9300 2800
Wire Wire Line
	7700 3200 7700 3050
Connection ~ 6600 2100
Wire Wire Line
	6600 2200 6600 2100
Wire Wire Line
	7200 2600 7200 2700
Connection ~ 7200 1100
Wire Wire Line
	7200 1200 7200 1100
Wire Wire Line
	6600 1700 6600 1600
Wire Wire Line
	9300 1900 9300 1100
Connection ~ 8700 1800
Wire Wire Line
	9400 1300 8700 1300
Wire Wire Line
	7700 2500 7700 2650
Wire Wire Line
	10100 2300 10000 2300
Wire Wire Line
	10000 2300 9800 2300
Wire Wire Line
	9900 1800 10000 1800
Connection ~ 10000 2300
Wire Wire Line
	8200 2600 8200 2500
Connection ~ 8200 2500
Wire Wire Line
	9400 1800 8700 1800
Connection ~ 8700 2100
Wire Wire Line
	9800 1300 10000 1300
Wire Wire Line
	10000 1300 10000 1800
Wire Wire Line
	10000 1800 10000 2300
Connection ~ 10000 1800
Wire Wire Line
	6400 2100 6600 2100
Wire Wire Line
	6600 2100 7200 2100
Wire Wire Line
	7200 2100 7700 2100
Wire Wire Line
	6600 1100 6600 1200
Connection ~ 6600 1100
Wire Wire Line
	7200 1600 7200 1700
Wire Wire Line
	6600 2600 6600 2700
Wire Wire Line
	7200 2200 7200 2100
Connection ~ 7200 2100
Wire Wire Line
	8200 3100 8200 3200
Wire Wire Line
	8700 1300 8700 1800
Wire Wire Line
	8700 1800 8700 2100
Wire Wire Line
	8700 2100 8700 2650
Wire Wire Line
	8800 2100 8700 2100
Wire Wire Line
	8700 2100 8300 2100
Wire Wire Line
	9300 1100 7200 1100
Wire Wire Line
	7200 1100 6600 1100
Wire Wire Line
	6600 1100 6400 1100
Wire Wire Line
	10600 2300 10700 2300
Wire Wire Line
	900  3000 1300 3000
Wire Wire Line
	1300 3000 1700 3000
Wire Wire Line
	1700 3000 1800 3000
Connection ~ 900  3000
Wire Wire Line
	1300 3000 1300 3100
Connection ~ 1300 3000
Wire Wire Line
	900  3600 900  3500
Wire Wire Line
	2900 4300 2900 4200
Wire Wire Line
	2900 3800 2900 3700
Connection ~ 2900 3700
Wire Wire Line
	2500 2350 2500 2100
Wire Wire Line
	2500 2100 2900 2100
Wire Wire Line
	2900 2100 3000 2100
Wire Wire Line
	3600 3100 3600 3000
Wire Wire Line
	3600 3000 3600 2700
Wire Wire Line
	3600 2700 3600 2600
Wire Wire Line
	2500 3100 2500 3000
Wire Wire Line
	2500 3000 2500 2750
Wire Wire Line
	3000 2700 2900 2700
Wire Wire Line
	2900 2700 2900 2100
Connection ~ 2900 2100
Wire Wire Line
	3600 3000 3400 3000
Connection ~ 3600 3000
Wire Wire Line
	3600 3600 3600 3500
Wire Wire Line
	4000 3800 4000 3700
Wire Wire Line
	4000 3700 4000 3200
Wire Wire Line
	4000 3200 4000 3100
Connection ~ 4000 3700
Wire Wire Line
	4500 2650 4500 2500
Wire Wire Line
	4500 2500 4000 2500
Connection ~ 4000 2500
Wire Wire Line
	3400 2100 3600 2100
Wire Wire Line
	3600 2100 4000 2100
Wire Wire Line
	4000 2100 4200 2100
Connection ~ 4000 2100
Wire Wire Line
	5000 2700 5000 2600
Wire Wire Line
	4700 2100 5000 2100
Wire Wire Line
	5000 2100 5400 2100
Wire Wire Line
	5400 2100 5400 2200
Connection ~ 5000 2100
Wire Wire Line
	5200 3900 5200 4100
Wire Wire Line
	5200 4100 4900 4100
Wire Wire Line
	4900 4200 4900 4100
Wire Wire Line
	4900 4100 4900 3950
Connection ~ 4900 4100
$Comp
L +5VA #PWR?
U 1 1 516B8999
P 4900 3200
F 0 "#PWR?" H 4900 3330 20  0001 C CNN
F 1 "+5VA" H 4900 3300 30  0000 C CNN
	1    4900 3200
	1    0    0    -1  
$EndComp
$Comp
L GND #PWR?
U 1 1 516B898E
P 4900 4200
F 0 "#PWR?" H 4900 4200 30  0001 C CNN
F 1 "GND" H 4900 4130 30  0001 C CNN
	1    4900 4200
	1    0    0    -1  
$EndComp
$Comp
L C C?
U 1 1 516B896D
P 5200 3700
F 0 "C?" H 5250 3800 50  0000 L CNN
F 1 "0.1uF" H 5250 3600 50  0000 L CNN
	1    5200 3700
	1    0    0    -1  
$EndComp
$Comp
L POT RV?
U 1 1 516B8945
P 4900 3700
F 0 "RV?" H 4900 3600 50  0000 C CNN
F 1 "POT" H 4900 3700 50  0000 C CNN
	1    4900 3700
	0    -1   1    0   
$EndComp
$Comp
L GND #PWR?
U 1 1 516B889A
P 5400 2800
F 0 "#PWR?" H 5400 2800 30  0001 C CNN
F 1 "GND" H 5400 2730 30  0001 C CNN
	1    5400 2800
	1    0    0    -1  
$EndComp
$Comp
L R R?
U 1 1 516B8890
P 5400 2450
F 0 "R?" V 5480 2450 50  0000 C CNN
F 1 "R" V 5400 2450 50  0000 C CNN
	1    5400 2450
	1    0    0    -1  
$EndComp
$Comp
L GND #PWR?
U 1 1 516B888C
P 5000 2700
F 0 "#PWR?" H 5000 2700 30  0001 C CNN
F 1 "GND" H 5000 2630 30  0001 C CNN
	1    5000 2700
	1    0    0    -1  
$EndComp
$Comp
L C C?
U 1 1 516B8879
P 5000 2400
F 0 "C?" H 5050 2500 50  0000 L CNN
F 1 "0.1uF" H 5050 2300 50  0000 L CNN
F 4 "50V" H 4950 2300 60  0000 R CNN "Voltage"
F 5 "X5R" H 4950 2500 60  0000 R CNN "Dielectric"
	1    5000 2400
	-1   0    0    -1  
$EndComp
$Comp
L R R?
U 1 1 516B8795
P 4000 4050
F 0 "R?" V 4080 4050 50  0000 C CNN
F 1 "R" V 4000 4050 50  0000 C CNN
	1    4000 4050
	1    0    0    -1  
$EndComp
$Comp
L R R?
U 1 1 516B8817
P 4450 2100
F 0 "R?" V 4530 2100 50  0000 C CNN
F 1 "R" V 4450 2100 50  0000 C CNN
	1    4450 2100
	0    -1   -1   0   
$EndComp
$Comp
L C C?
U 1 1 516B87D5
P 4500 2850
F 0 "C?" H 4550 2950 50  0000 L CNN
F 1 "0.15uF" H 4550 2750 50  0000 L CNN
F 4 "50V" H 4450 2750 60  0000 R CNN "Voltage"
F 5 "X5R" H 4450 2950 60  0000 R CNN "Dielectric"
	1    4500 2850
	-1   0    0    -1  
$EndComp
$Comp
L R R?
U 1 1 516B87B9
P 4350 3700
F 0 "R?" V 4430 3700 50  0000 C CNN
F 1 "R" V 4350 3700 50  0000 C CNN
	1    4350 3700
	0    -1   -1   0   
$EndComp
$Comp
L GND #PWR?
U 1 1 516B87A4
P 4000 4400
F 0 "#PWR?" H 4000 4400 30  0001 C CNN
F 1 "GND" H 4000 4330 30  0001 C CNN
	1    4000 4400
	1    0    0    -1  
$EndComp
$Comp
L R R?
U 1 1 516B879C
P 4000 2850
F 0 "R?" V 4080 2850 50  0000 C CNN
F 1 "R" V 4000 2850 50  0000 C CNN
	1    4000 2850
	1    0    0    -1  
$EndComp
$Comp
L GND #PWR?
U 1 1 516B8750
P 3600 3600
F 0 "#PWR?" H 3600 3600 30  0001 C CNN
F 1 "GND" H 3600 3530 30  0001 C CNN
	1    3600 3600
	1    0    0    -1  
$EndComp
$Comp
L DIODESCH D?
U 1 1 516B874A
P 2900 4000
F 0 "D?" H 2900 4100 40  0000 C CNN
F 1 "MBR0540" H 2900 3900 40  0000 C CNN
	1    2900 4000
	0    -1   -1   0   
$EndComp
$Comp
L DIODESCH D?
U 1 1 516B8747
P 2900 3300
F 0 "D?" H 2900 3400 40  0000 C CNN
F 1 "MBR0540" H 2900 3200 40  0000 C CNN
	1    2900 3300
	0    -1   -1   0   
$EndComp
$Comp
L DIODESCH D?
U 1 1 516B873D
P 3200 2700
F 0 "D?" H 3200 2800 40  0000 C CNN
F 1 "MBR0540" H 3200 2600 40  0000 C CNN
	1    3200 2700
	-1   0    0    -1  
$EndComp
$Comp
L DIODESCH D?
U 1 1 516B873B
P 3200 2100
F 0 "D?" H 3200 2200 40  0000 C CNN
F 1 "MBR0540" H 3200 2000 40  0000 C CNN
	1    3200 2100
	1    0    0    -1  
$EndComp
$Comp
L C C?
U 1 1 516B86EC
P 3600 2400
F 0 "C?" H 3650 2500 50  0000 L CNN
F 1 "1uF" H 3650 2300 50  0000 L CNN
F 4 "50V" H 3550 2300 60  0000 R CNN "Voltage"
F 5 "X5R" H 3550 2500 60  0000 R CNN "Dielectric"
	1    3600 2400
	-1   0    0    -1  
$EndComp
$Comp
L C C?
U 1 1 516B869E
P 3600 3300
F 0 "C?" H 3650 3400 50  0000 L CNN
F 1 "1uF" H 3650 3200 50  0000 L CNN
F 4 "50V" H 3550 3200 60  0000 R CNN "Voltage"
F 5 "X5R" H 3550 3400 60  0000 R CNN "Dielectric"
	1    3600 3300
	-1   0    0    -1  
$EndComp
$Comp
L C C?
U 1 1 516B8681
P 2500 2550
F 0 "C?" H 2550 2650 50  0000 L CNN
F 1 "0.15uF" H 2550 2450 50  0000 L CNN
F 4 "50V" H 2450 2450 60  0000 R CNN "Voltage"
F 5 "X5R" H 2450 2650 60  0000 R CNN "Dielectric"
	1    2500 2550
	-1   0    0    -1  
$EndComp
$Comp
L DIODESCH D?
U 1 1 516B866C
P 3200 3000
F 0 "D?" H 3200 3100 40  0000 C CNN
F 1 "MBR0540" H 3200 2900 40  0000 C CNN
	1    3200 3000
	1    0    0    -1  
$EndComp
$Comp
L GND #PWR?
U 1 1 516B8664
P 2900 3600
F 0 "#PWR?" H 2900 3600 30  0001 C CNN
F 1 "GND" H 2900 3530 30  0001 C CNN
	1    2900 3600
	1    0    0    -1  
$EndComp
$Comp
L R R?
U 1 1 516B8651
P 3250 3700
F 0 "R?" V 3330 3700 50  0000 C CNN
F 1 "R" V 3250 3700 50  0000 C CNN
	1    3250 3700
	0    -1   -1   0   
$EndComp
$Comp
L GND #PWR?
U 1 1 516B864C
P 2900 4300
F 0 "#PWR?" H 2900 4300 30  0001 C CNN
F 1 "GND" H 2900 4230 30  0001 C CNN
	1    2900 4300
	1    0    0    -1  
$EndComp
$Comp
L GND #PWR?
U 1 1 516B8644
P 2100 4200
F 0 "#PWR?" H 2100 4200 30  0001 C CNN
F 1 "GND" H 2100 4130 30  0001 C CNN
	1    2100 4200
	1    0    0    -1  
$EndComp
$Comp
L GND #PWR?
U 1 1 516B863E
P 900 3600
F 0 "#PWR?" H 900 3600 30  0001 C CNN
F 1 "GND" H 900 3530 30  0001 C CNN
	1    900  3600
	1    0    0    -1  
$EndComp
$Comp
L +BATT #PWR?
U 1 1 516B8629
P 900 2900
F 0 "#PWR?" H 900 2850 20  0001 C CNN
F 1 "+BATT" H 900 3000 30  0000 C CNN
	1    900  2900
	1    0    0    -1  
$EndComp
$Comp
L C C?
U 1 1 516B8616
P 900 3300
F 0 "C?" H 950 3400 50  0000 L CNN
F 1 "C" H 950 3200 50  0000 L CNN
	1    900  3300
	-1   0    0    -1  
$EndComp
$Comp
L R R?
U 1 1 516B8607
P 1300 3350
F 0 "R?" V 1380 3350 50  0000 C CNN
F 1 "R" V 1300 3350 50  0000 C CNN
	1    1300 3350
	1    0    0    -1  
$EndComp
$Comp
L INDUCTOR L?
U 1 1 516B85D4
P 2100 3000
F 0 "L?" V 2050 3000 40  0000 C CNN
F 1 "INDUCTOR" V 2200 3000 40  0000 C CNN
	1    2100 3000
	0    -1   -1   0   
$EndComp
$Comp
L LT1930 U?
U 1 1 516B85CE
P 2100 3600
F 0 "U?" H 2100 3750 60  0000 C CNN
F 1 "LT1930" H 2100 3650 60  0000 C CNN
	1    2100 3600
	1    0    0    -1  
$EndComp
$Comp
L OPA381 U?
U 1 1 516B750C
P 9300 2300
F 0 "U?" H 9600 2500 60  0000 C CNN
F 1 "OPA380" H 9600 2100 60  0000 C CNN
	1    9300 2300
	1    0    0    -1  
$EndComp
$Comp
L R R?
U 1 1 516B750B
P 8200 2850
F 0 "R?" V 8280 2850 50  0000 C CNN
F 1 "R" V 8200 2850 50  0000 C CNN
	1    8200 2850
	-1   0    0    -1  
$EndComp
$Comp
L R R?
U 1 1 516B750A
P 9650 1800
F 0 "R?" V 9730 1800 50  0000 C CNN
F 1 "R" V 9650 1800 50  0000 C CNN
F 4 "1%" V 9550 1800 60  0000 C CNN "Tolerance"
	1    9650 1800
	0    -1   -1   0   
$EndComp
$Comp
L R R?
U 1 1 516B7509
P 10350 2300
F 0 "R?" V 10430 2300 50  0000 C CNN
F 1 "R" V 10350 2300 50  0000 C CNN
	1    10350 2300
	0    -1   -1   0   
$EndComp
$Comp
L PHOTODIODE D?
U 1 1 516B7508
P 8000 2100
F 0 "D?" H 8000 2400 60  0000 C CNN
F 1 "uFB10035-X18" H 8000 2300 60  0000 C CNN
	1    8000 2100
	-1   0    0    1   
$EndComp
$Comp
L FERRITE FB?
U 1 1 516B7507
P 6100 1100
F 0 "FB?" H 6000 1200 60  0000 C CNN
F 1 "FERRITE" H 6200 1000 60  0000 C CNN
	1    6100 1100
	1    0    0    -1  
$EndComp
$Comp
L C C?
U 1 1 516B7506
P 6600 1400
F 0 "C?" H 6650 1500 50  0000 L CNN
F 1 "0.1uF" H 6650 1300 50  0000 L CNN
F 4 "16V" H 6550 1300 60  0000 R CNN "Voltage"
F 5 "X5R" H 6550 1500 60  0000 R CNN "Dielectric"
	1    6600 1400
	-1   0    0    -1  
$EndComp
$Comp
L C C?
U 1 1 516B7505
P 7200 1400
F 0 "C?" H 7250 1500 50  0000 L CNN
F 1 "0.01uF" H 7250 1300 50  0000 L CNN
F 4 "16V" H 7150 1300 60  0000 R CNN "Voltage"
F 5 "X5R" H 7150 1500 60  0000 R CNN "Dielectric"
	1    7200 1400
	-1   0    0    -1  
$EndComp
$Comp
L GND #PWR?
U 1 1 516B7504
P 7200 1700
F 0 "#PWR?" H 7200 1700 30  0001 C CNN
F 1 "GND" H 7200 1630 30  0001 C CNN
	1    7200 1700
	1    0    0    -1  
$EndComp
$Comp
L GND #PWR?
U 1 1 516B7503
P 6600 1700
F 0 "#PWR?" H 6600 1700 30  0001 C CNN
F 1 "GND" H 6600 1630 30  0001 C CNN
	1    6600 1700
	1    0    0    -1  
$EndComp
$Comp
L C C?
U 1 1 516B7502
P 6600 2400
F 0 "C?" H 6650 2500 50  0000 L CNN
F 1 "0.1uF" H 6650 2300 50  0000 L CNN
F 4 "50V" H 6550 2300 60  0000 R CNN "Voltage"
F 5 "X5R" H 6550 2500 60  0000 R CNN "Dielectric"
	1    6600 2400
	-1   0    0    -1  
$EndComp
$Comp
L C C?
U 1 1 516B7501
P 7200 2400
F 0 "C?" H 7250 2500 50  0000 L CNN
F 1 "0.01uF" H 7250 2300 50  0000 L CNN
F 4 "50V" H 7150 2300 60  0000 R CNN "Voltage"
F 5 "X5R" H 7150 2500 60  0000 R CNN "Dielectric"
	1    7200 2400
	-1   0    0    -1  
$EndComp
$Comp
L GND #PWR?
U 1 1 516B7500
P 6600 2700
F 0 "#PWR?" H 6600 2700 30  0001 C CNN
F 1 "GND" H 6600 2630 30  0001 C CNN
	1    6600 2700
	1    0    0    -1  
$EndComp
$Comp
L GND #PWR?
U 1 1 516B74FF
P 7200 2700
F 0 "#PWR?" H 7200 2700 30  0001 C CNN
F 1 "GND" H 7200 2630 30  0001 C CNN
	1    7200 2700
	1    0    0    -1  
$EndComp
$Comp
L GND #PWR?
U 1 1 516B74FE
P 9300 2800
F 0 "#PWR?" H 9300 2800 30  0001 C CNN
F 1 "GND" H 9300 2730 30  0001 C CNN
	1    9300 2800
	1    0    0    -1  
$EndComp
$Comp
L GND #PWR?
U 1 1 516B74FD
P 8200 3200
F 0 "#PWR?" H 8200 3200 30  0001 C CNN
F 1 "GND" H 8200 3130 30  0001 C CNN
	1    8200 3200
	1    0    0    -1  
$EndComp
$Comp
L GND #PWR?
U 1 1 516B74FC
P 7700 3200
F 0 "#PWR?" H 7700 3200 30  0001 C CNN
F 1 "GND" H 7700 3130 30  0001 C CNN
	1    7700 3200
	1    0    0    -1  
$EndComp
$Comp
L C C?
U 1 1 516B74FB
P 8700 2850
F 0 "C?" H 8750 2950 50  0000 L CNN
F 1 "100pF" H 8750 2750 50  0000 L CNN
F 4 "50V" H 8650 2750 60  0000 R CNN "Voltage"
F 5 "X5R" H 8650 2950 60  0000 R CNN "Dielectric"
	1    8700 2850
	-1   0    0    -1  
$EndComp
$Comp
L C C?
U 1 1 516B74FA
P 7700 2850
F 0 "C?" H 7750 2950 50  0000 L CNN
F 1 "C" H 7750 2750 50  0000 L CNN
F 4 "?V" H 7650 2750 60  0000 R CNN "Voltage"
F 5 "X5R" H 7650 2950 60  0000 R CNN "Dielectric"
	1    7700 2850
	-1   0    0    -1  
$EndComp
$Comp
L GND #PWR?
U 1 1 516B74F9
P 8700 3200
F 0 "#PWR?" H 8700 3200 30  0001 C CNN
F 1 "GND" H 8700 3130 30  0001 C CNN
	1    8700 3200
	1    0    0    -1  
$EndComp
$Comp
L C C?
U 1 1 516B74F8
P 9600 1300
F 0 "C?" H 9650 1400 50  0000 L CNN
F 1 "C" H 9650 1200 50  0000 L CNN
F 4 "16V" H 9550 1200 60  0000 R CNN "Voltage"
F 5 "X5R" H 9550 1400 60  0000 R CNN "Dielectric"
	1    9600 1300
	0    -1   1    0   
$EndComp
Text Notes 8800 3100 0    60   ~ 0
Optional:\nOmit if not using fast mode
$Comp
L +5VA #PWR?
U 1 1 516B74F7
P 5700 1000
F 0 "#PWR?" H 5700 1130 20  0001 C CNN
F 1 "+5VA" H 5700 1100 30  0000 C CNN
	1    5700 1000
	1    0    0    -1  
$EndComp
Text Notes 6500 1000 0    60   ~ 0
Power Supply
Text Notes 6500 2000 0    60   ~ 0
Bias Supply
$Comp
L FERRITE FB?
U 1 1 516B74F6
P 6100 2100
F 0 "FB?" H 6000 2200 60  0000 C CNN
F 1 "FERRITE" H 6200 2000 60  0000 C CNN
	1    6100 2100
	1    0    0    -1  
$EndComp
$EndSCHEMATC
