EESchema Schematic File Version 2  date 4/18/2013 6:48:03 PM
LIBS:power
LIBS:device
LIBS:transistors
LIBS:conn
LIBS:linear
LIBS:regul
LIBS:74xx
LIBS:cmos4000
LIBS:adc-dac
LIBS:memory
LIBS:xilinx
LIBS:special
LIBS:microcontrollers
LIBS:dsp
LIBS:microchip
LIBS:analog_switches
LIBS:motorola
LIBS:texas
LIBS:intel
LIBS:audio
LIBS:interface
LIBS:digital-audio
LIBS:philips
LIBS:display
LIBS:cypress
LIBS:siliconi
LIBS:opto
LIBS:atmel
LIBS:contrib
LIBS:valves
LIBS:AeroDyne
LIBS:SiPMCosmicRay-cache
EELAYER 25  0
EELAYER END
$Descr A4 11700 8267
encoding utf-8
Sheet 6 6
Title "Cosmic Ray Detector"
Date "18 apr 2013"
Rev "1A"
Comp "Ethan Harstad"
Comment1 "https://github.com/ethanharstad/SiPMCosmicRay"
Comment2 "CC-BY-SA 3.0 License"
Comment3 ""
Comment4 ""
$EndDescr
Connection ~ 4800 1800
Wire Wire Line
	4800 1700 4800 1800
Wire Wire Line
	3300 6000 3900 6000
Wire Wire Line
	2800 6000 2400 6000
Wire Wire Line
	2300 3600 2300 3500
Connection ~ 10700 5200
Wire Wire Line
	10700 5200 10700 5300
Wire Wire Line
	9800 1700 9800 1800
Wire Wire Line
	9000 1700 9000 1800
Connection ~ 9800 1200
Wire Wire Line
	9800 1200 9800 1300
Wire Wire Line
	9000 1100 9000 1300
Connection ~ 4800 2900
Wire Wire Line
	5000 2900 4500 2900
Wire Wire Line
	5100 4000 4700 4000
Wire Wire Line
	4700 4000 4700 2800
Wire Wire Line
	5100 3800 4900 3800
Wire Wire Line
	4900 3800 4900 3000
Connection ~ 6600 900 
Wire Wire Line
	6600 1000 6600 800 
Wire Wire Line
	3700 1700 3700 1600
Wire Wire Line
	3200 1100 3200 1200
Wire Wire Line
	2700 4700 2700 4600
Wire Wire Line
	2700 4200 2700 3500
Wire Wire Line
	2700 3500 2300 3500
Wire Wire Line
	1300 4700 1300 4600
Wire Wire Line
	1300 3600 1300 3500
Wire Wire Line
	900  4100 900  4200
Wire Wire Line
	6900 2500 6800 2500
Wire Wire Line
	6800 2900 6900 2900
Wire Wire Line
	10300 5800 10300 5700
Wire Wire Line
	9900 3200 9900 3100
Connection ~ 10300 5200
Wire Wire Line
	9400 4500 9400 4600
Connection ~ 9200 5400
Wire Wire Line
	9200 5400 9100 5400
Connection ~ 9200 5200
Wire Wire Line
	9200 5200 9200 5500
Wire Wire Line
	9200 5500 9100 5500
Wire Wire Line
	9100 6100 9200 6100
Wire Wire Line
	9200 6100 9200 6200
Wire Wire Line
	8100 4900 8200 4900
Wire Wire Line
	6800 2400 6900 2400
Wire Wire Line
	6800 2300 6900 2300
Wire Wire Line
	6800 2200 6900 2200
Wire Wire Line
	6800 2100 6900 2100
Wire Wire Line
	8100 2800 8200 2800
Wire Wire Line
	9900 3600 9900 3700
Wire Wire Line
	10300 3100 10300 3800
Connection ~ 9200 3200
Wire Wire Line
	9200 3200 9100 3200
Connection ~ 9200 3100
Wire Wire Line
	6800 2000 6900 2000
Wire Wire Line
	6800 1900 6900 1900
Wire Wire Line
	6800 1800 6900 1800
Wire Wire Line
	6800 1700 6900 1700
Wire Wire Line
	6200 3500 6200 3400
Wire Wire Line
	4900 2600 5000 2600
Wire Wire Line
	4900 2500 5000 2500
Wire Wire Line
	4900 2400 5000 2400
Wire Wire Line
	4900 2300 5000 2300
Wire Wire Line
	5300 6000 5400 6000
Connection ~ 4700 6300
Connection ~ 4700 6000
Wire Wire Line
	4600 6300 5150 6300
Connection ~ 3500 6000
Wire Wire Line
	3600 6300 3500 6300
Wire Wire Line
	5800 6000 6000 6000
Wire Wire Line
	2400 5900 2400 6100
Wire Wire Line
	2400 6600 2400 6800
Connection ~ 900  6000
Wire Wire Line
	1000 6000 900  6000
Wire Wire Line
	900  6700 900  6600
Connection ~ 2400 1500
Wire Wire Line
	2500 1500 2400 1500
Wire Wire Line
	2400 800  2400 900 
Wire Wire Line
	2400 2100 2400 2300
Connection ~ 1700 1500
Wire Wire Line
	1800 1500 1700 1500
Wire Wire Line
	1700 1400 1700 1600
Connection ~ 1000 950 
Wire Wire Line
	1000 1550 1000 1450
Connection ~ 6200 900 
Wire Wire Line
	6200 1400 6200 900 
Wire Wire Line
	5650 900  5200 900 
Wire Wire Line
	5200 900  5200 1000
Wire Wire Line
	6600 1500 6600 1400
Wire Wire Line
	5200 1400 5200 1500
Wire Wire Line
	6600 900  6150 900 
Wire Wire Line
	5600 1400 5600 900 
Connection ~ 5600 900 
Wire Wire Line
	1000 850  1000 1050
Wire Wire Line
	4700 1800 5000 1800
Wire Wire Line
	4900 1900 5000 1900
Wire Wire Line
	4900 2000 5000 2000
Wire Wire Line
	4900 2100 5000 2100
Wire Wire Line
	1700 800  1700 900 
Wire Wire Line
	1700 2200 1700 2100
Wire Wire Line
	2400 2900 2400 2800
Wire Wire Line
	2400 1600 2400 1400
Wire Wire Line
	2500 2200 2400 2200
Connection ~ 2400 2200
Wire Wire Line
	900  5300 900  5400
Wire Wire Line
	900  5900 900  6100
Wire Wire Line
	4900 2200 5000 2200
Wire Wire Line
	2400 5300 2400 5400
Connection ~ 2400 6000
Wire Wire Line
	5900 6000 5900 6300
Wire Wire Line
	5900 6300 5550 6300
Connection ~ 5900 6000
Wire Wire Line
	4800 6000 4400 6000
Wire Wire Line
	4100 6300 4200 6300
Wire Wire Line
	4700 6300 4700 5900
Wire Wire Line
	2400 7400 2400 7300
Wire Wire Line
	5600 3400 5600 3500
Wire Wire Line
	9100 3100 9300 3100
Wire Wire Line
	9200 2900 9200 3400
Wire Wire Line
	9200 3400 9100 3400
Wire Wire Line
	9100 3300 9200 3300
Connection ~ 9200 3300
Connection ~ 9900 3100
Wire Wire Line
	9200 4100 9200 4000
Wire Wire Line
	9200 4000 9100 4000
Wire Wire Line
	9200 2400 9200 2500
Wire Wire Line
	9200 2500 9100 2500
Wire Wire Line
	8200 3700 8100 3700
Wire Wire Line
	8100 5800 8200 5800
Wire Wire Line
	9200 4500 9200 4600
Wire Wire Line
	9200 4600 9100 4600
Wire Wire Line
	9100 5200 9500 5200
Wire Wire Line
	9200 5300 9100 5300
Connection ~ 9200 5300
Wire Wire Line
	9400 5100 9400 5200
Connection ~ 9400 5200
Wire Wire Line
	10300 5300 10300 4800
Wire Wire Line
	10100 5200 10800 5200
Wire Wire Line
	9800 3100 10400 3100
Connection ~ 10300 3100
Wire Wire Line
	6800 3000 6900 3000
Wire Wire Line
	6800 3100 6900 3100
Wire Wire Line
	6900 2800 6800 2800
Wire Wire Line
	900  3400 900  3600
Wire Wire Line
	1700 4200 1700 3500
Wire Wire Line
	1300 4100 1300 4200
Wire Wire Line
	1700 4700 1700 4600
Wire Wire Line
	2300 4100 2300 4200
Wire Wire Line
	2300 4600 2300 4700
Wire Wire Line
	3200 1600 3200 1700
Wire Wire Line
	3700 1000 3700 1100
Wire Wire Line
	5000 4200 5000 4100
Wire Wire Line
	5000 4100 5100 4100
Wire Wire Line
	4800 2900 4800 3900
Wire Wire Line
	4800 3900 5100 3900
Wire Wire Line
	5000 2800 4500 2800
Connection ~ 4700 2800
Wire Wire Line
	5000 3000 4500 3000
Connection ~ 4900 3000
Wire Wire Line
	9000 1200 10200 1200
Wire Wire Line
	10200 1200 10200 1300
Connection ~ 9000 1200
Wire Wire Line
	9400 1200 9400 1300
Connection ~ 9400 1200
Wire Wire Line
	9400 1700 9400 1800
Wire Wire Line
	10200 1700 10200 1800
Wire Wire Line
	10700 5800 10700 5700
Wire Wire Line
	1700 3500 1300 3500
Wire Wire Line
	1100 950  1000 950 
Wire Wire Line
	2700 5900 2700 6000
Connection ~ 2700 6000
Wire Wire Line
	3500 6300 3500 5900
Wire Wire Line
	4500 2600 4600 2600
Wire Wire Line
	4600 2600 4600 2700
Wire Wire Line
	4600 2700 5000 2700
Text GLabel 4800 1700 1    60   Output ~ 0
TempRef
Text HLabel 4500 2600 0    60   Input ~ 0
TempSet
$Comp
L +2.5V #PWR?
U 1 1 516B558D
P 2400 5300
F 0 "#PWR?" H 2400 5250 20  0001 C CNN
F 1 "+2.5V" H 2400 5400 30  0000 C CNN
	1    2400 5300
	1    0    0    -1  
$EndComp
$Comp
L +2.5V #PWR?
U 1 1 516B558B
P 900 5300
F 0 "#PWR?" H 900 5250 20  0001 C CNN
F 1 "+2.5V" H 900 5400 30  0000 C CNN
	1    900  5300
	1    0    0    -1  
$EndComp
$Comp
L +2.5V #PWR?
U 1 1 516B5589
P 2400 800
F 0 "#PWR?" H 2400 750 20  0001 C CNN
F 1 "+2.5V" H 2400 900 30  0000 C CNN
	1    2400 800 
	1    0    0    -1  
$EndComp
$Comp
L +2.5V #PWR?
U 1 1 516B5586
P 1700 800
F 0 "#PWR?" H 1700 750 20  0001 C CNN
F 1 "+2.5V" H 1700 900 30  0000 C CNN
	1    1700 800 
	1    0    0    -1  
$EndComp
$Comp
L ADN8831 U?
U 1 1 516B54C6
P 5900 2400
F 0 "U?" H 5900 2450 60  0000 C CNN
F 1 "ADN8831" H 5900 2350 60  0000 C CNN
	1    5900 2400
	1    0    0    -1  
$EndComp
$Comp
L R R?
U 1 1 516B54C5
P 5900 900
F 0 "R?" V 5980 900 50  0000 C CNN
F 1 "R" V 5900 900 50  0000 C CNN
	1    5900 900 
	0    -1   -1   0   
$EndComp
$Comp
L C C?
U 1 1 516B54C4
P 6600 1200
F 0 "C?" H 6650 1300 50  0000 L CNN
F 1 "0.1uF" H 6650 1100 50  0000 L CNN
F 4 "16V" H 6550 1100 60  0001 R CNN "Voltage"
F 5 "X5R" H 6550 1300 60  0001 R CNN "Dielectric"
	1    6600 1200
	-1   0    0    -1  
$EndComp
$Comp
L GND #PWR?
U 1 1 516B54C3
P 6600 1500
F 0 "#PWR?" H 6600 1500 30  0001 C CNN
F 1 "GND" H 6600 1430 30  0001 C CNN
	1    6600 1500
	1    0    0    -1  
$EndComp
$Comp
L GND #PWR?
U 1 1 516B54C2
P 5200 1500
F 0 "#PWR?" H 5200 1500 30  0001 C CNN
F 1 "GND" H 5200 1430 30  0001 C CNN
	1    5200 1500
	1    0    0    -1  
$EndComp
$Comp
L +5V #PWR?
U 1 1 516B54C1
P 6600 800
F 0 "#PWR?" H 6600 890 20  0001 C CNN
F 1 "+5V" H 6600 890 30  0000 C CNN
	1    6600 800 
	1    0    0    -1  
$EndComp
$Comp
L +2.5V #PWR?
U 1 1 516B54C0
P 1000 850
F 0 "#PWR?" H 1000 800 20  0001 C CNN
F 1 "+2.5V" H 1000 950 30  0000 C CNN
	1    1000 850 
	1    0    0    -1  
$EndComp
$Comp
L THERMISTOR RT?
U 1 1 516B54BF
P 2400 7050
F 0 "RT?" V 2500 7100 50  0000 C CNN
F 1 "THERMISTOR" V 2300 7050 50  0000 C CNN
	1    2400 7050
	1    0    0    -1  
$EndComp
$Comp
L GND #PWR?
U 1 1 516B54BE
P 1000 1550
F 0 "#PWR?" H 1000 1550 30  0001 C CNN
F 1 "GND" H 1000 1480 30  0001 C CNN
	1    1000 1550
	1    0    0    -1  
$EndComp
$Comp
L R R?
U 1 1 516B54BD
P 1700 1150
F 0 "R?" V 1780 1150 50  0000 C CNN
F 1 "R" V 1700 1150 50  0000 C CNN
	1    1700 1150
	1    0    0    -1  
$EndComp
$Comp
L R R?
U 1 1 516B54BC
P 1700 1850
F 0 "R?" V 1780 1850 50  0000 C CNN
F 1 "R" V 1700 1850 50  0000 C CNN
	1    1700 1850
	1    0    0    -1  
$EndComp
Text Label 4700 1800 2    60   ~ 0
Ref
Text Label 4900 1900 2    60   ~ 0
VLim
Text Label 4900 2000 2    60   ~ 0
ILimC
Text Label 4900 2100 2    60   ~ 0
ILimH
Text Label 1100 950  0    60   ~ 0
Ref
$Comp
L GND #PWR?
U 1 1 516B54BB
P 1700 2200
F 0 "#PWR?" H 1700 2200 30  0001 C CNN
F 1 "GND" H 1700 2130 30  0001 C CNN
	1    1700 2200
	1    0    0    -1  
$EndComp
Text Label 1800 1500 0    60   ~ 0
VLim
$Comp
L R R?
U 1 1 516B54BA
P 2400 1150
F 0 "R?" V 2480 1150 50  0000 C CNN
F 1 "R" V 2400 1150 50  0000 C CNN
	1    2400 1150
	1    0    0    -1  
$EndComp
$Comp
L R R?
U 1 1 516B54B9
P 2400 1850
F 0 "R?" V 2480 1850 50  0000 C CNN
F 1 "R" V 2400 1850 50  0000 C CNN
	1    2400 1850
	1    0    0    -1  
$EndComp
$Comp
L R R?
U 1 1 516B54B8
P 2400 2550
F 0 "R?" V 2480 2550 50  0000 C CNN
F 1 "R" V 2400 2550 50  0000 C CNN
	1    2400 2550
	1    0    0    -1  
$EndComp
$Comp
L GND #PWR?
U 1 1 516B54B7
P 2400 2900
F 0 "#PWR?" H 2400 2900 30  0001 C CNN
F 1 "GND" H 2400 2830 30  0001 C CNN
	1    2400 2900
	1    0    0    -1  
$EndComp
Text Label 2500 1500 0    60   ~ 0
ILimC
Text Label 2500 2200 0    60   ~ 0
ILimH
$Comp
L R R?
U 1 1 516B54B6
P 900 5650
F 0 "R?" V 980 5650 50  0000 C CNN
F 1 "R" V 900 5650 50  0000 C CNN
	1    900  5650
	1    0    0    -1  
$EndComp
$Comp
L R R?
U 1 1 516B54B5
P 900 6350
F 0 "R?" V 980 6350 50  0000 C CNN
F 1 "R" V 900 6350 50  0000 C CNN
	1    900  6350
	1    0    0    -1  
$EndComp
$Comp
L GND #PWR?
U 1 1 516B54B4
P 900 6700
F 0 "#PWR?" H 900 6700 30  0001 C CNN
F 1 "GND" H 900 6630 30  0001 C CNN
	1    900  6700
	1    0    0    -1  
$EndComp
Text Label 1000 6000 0    60   ~ 0
In1P
Text Label 4900 2200 2    60   ~ 0
In1P
$Comp
L R R?
U 1 1 516B54B3
P 2400 5650
F 0 "R?" V 2480 5650 50  0000 C CNN
F 1 "R" V 2400 5650 50  0000 C CNN
	1    2400 5650
	1    0    0    -1  
$EndComp
$Comp
L R R?
U 1 1 516B54B2
P 2400 6350
F 0 "R?" V 2480 6350 50  0000 C CNN
F 1 "R" V 2400 6350 50  0000 C CNN
	1    2400 6350
	1    0    0    -1  
$EndComp
$Comp
L R R?
U 1 1 516B54B1
P 3050 6000
F 0 "R?" V 3130 6000 50  0000 C CNN
F 1 "R" V 3050 6000 50  0000 C CNN
	1    3050 6000
	0    -1   -1   0   
$EndComp
Text Label 2700 5900 1    60   ~ 0
In1N
Text Label 3500 5900 1    60   ~ 0
Out1
$Comp
L R R?
U 1 1 516B54B0
P 4150 6000
F 0 "R?" V 4230 6000 50  0000 C CNN
F 1 "R" V 4150 6000 50  0000 C CNN
	1    4150 6000
	0    -1   -1   0   
$EndComp
$Comp
L R R?
U 1 1 516B54AF
P 3850 6300
F 0 "R?" V 3930 6300 50  0000 C CNN
F 1 "R" V 3850 6300 50  0000 C CNN
	1    3850 6300
	0    -1   -1   0   
$EndComp
$Comp
L C C?
U 1 1 516B54AE
P 4400 6300
F 0 "C?" H 4450 6400 50  0000 L CNN
F 1 "C" H 4450 6200 50  0000 L CNN
	1    4400 6300
	0    -1   -1   0   
$EndComp
$Comp
L C C?
U 1 1 516B54AD
P 5350 6300
F 0 "C?" H 5400 6400 50  0000 L CNN
F 1 "C" H 5400 6200 50  0000 L CNN
	1    5350 6300
	0    -1   -1   0   
$EndComp
$Comp
L R R?
U 1 1 516B54AC
P 5050 6000
F 0 "R?" V 5130 6000 50  0000 C CNN
F 1 "R" V 5050 6000 50  0000 C CNN
	1    5050 6000
	0    -1   -1   0   
$EndComp
$Comp
L C C?
U 1 1 516B54AB
P 5600 6000
F 0 "C?" H 5650 6100 50  0000 L CNN
F 1 "C" H 5650 5900 50  0000 L CNN
	1    5600 6000
	0    -1   -1   0   
$EndComp
Text Label 6000 6000 0    60   ~ 0
Out2
Text Label 4700 5900 1    60   ~ 0
In2N
Text Label 4900 2300 2    60   ~ 0
In1N
Text Label 4900 2400 2    60   ~ 0
Out1
Text Label 4900 2500 2    60   ~ 0
In2N
Text Label 4900 2600 2    60   ~ 0
Out2
$Comp
L GND #PWR?
U 1 1 516B54AA
P 2400 7400
F 0 "#PWR?" H 2400 7400 30  0001 C CNN
F 1 "GND" H 2400 7330 30  0001 C CNN
	1    2400 7400
	1    0    0    -1  
$EndComp
$Comp
L GND #PWR?
U 1 1 516B54A9
P 5600 3500
F 0 "#PWR?" H 5600 3500 30  0001 C CNN
F 1 "GND" H 5600 3430 30  0001 C CNN
	1    5600 3500
	1    0    0    -1  
$EndComp
$Comp
L GND #PWR?
U 1 1 516B54A8
P 6200 3500
F 0 "#PWR?" H 6200 3500 30  0001 C CNN
F 1 "GND" H 6200 3430 30  0001 C CNN
	1    6200 3500
	1    0    0    -1  
$EndComp
$Comp
L MOS_DUAL_PN Q?
U 1 1 516B54A7
P 8650 3250
F 0 "Q?" H 8650 4150 60  0000 C CNN
F 1 "AO4629" H 8650 2350 60  0000 C CNN
	1    8650 3250
	1    0    0    -1  
$EndComp
Text Label 8100 2800 2    60   ~ 0
LPGate
Text Label 8100 3700 2    60   ~ 0
LNGate
Text Label 6900 1700 0    60   ~ 0
LPGate
Text Label 6900 1800 0    60   ~ 0
LFB
Text Label 6900 1900 0    60   ~ 0
LNGate
Text Label 6900 2000 0    60   ~ 0
CS
$Comp
L R R?
U 1 1 516B54A6
P 9550 3100
F 0 "R?" V 9630 3100 50  0000 C CNN
F 1 "R" V 9550 3100 50  0000 C CNN
	1    9550 3100
	0    -1   -1   0   
$EndComp
Text Label 9200 2900 1    60   ~ 0
LFB
Text Label 10400 3100 0    60   ~ 0
CS
$Comp
L TEC TC?
U 1 1 516B54A5
P 10300 4300
F 0 "TC?" H 10300 4350 60  0000 C CNN
F 1 "TEC" H 10300 4250 60  0000 C CNN
	1    10300 4300
	0    1    1    0   
$EndComp
$Comp
L GND #PWR?
U 1 1 516B54A4
P 9900 3700
F 0 "#PWR?" H 9900 3700 30  0001 C CNN
F 1 "GND" H 9900 3630 30  0001 C CNN
	1    9900 3700
	1    0    0    -1  
$EndComp
$Comp
L GND #PWR?
U 1 1 516B54A3
P 9200 4100
F 0 "#PWR?" H 9200 4100 30  0001 C CNN
F 1 "GND" H 9200 4030 30  0001 C CNN
	1    9200 4100
	1    0    0    -1  
$EndComp
$Comp
L +5V #PWR?
U 1 1 516B54A2
P 9200 2400
F 0 "#PWR?" H 9200 2490 20  0001 C CNN
F 1 "+5V" H 9200 2490 30  0000 C CNN
	1    9200 2400
	1    0    0    -1  
$EndComp
$Comp
L MOS_DUAL_PN Q?
U 1 1 516B54A1
P 8650 5350
F 0 "Q?" H 8650 6250 60  0000 C CNN
F 1 "AO4629" H 8650 4450 60  0000 C CNN
	1    8650 5350
	1    0    0    -1  
$EndComp
Text Label 6900 2100 0    60   ~ 0
SFB
Text Label 6900 2200 0    60   ~ 0
SPGate
Text Label 6900 2300 0    60   ~ 0
SW
Text Label 6900 2400 0    60   ~ 0
SNGate
Text Label 8100 4900 2    60   ~ 0
SPGate
Text Label 8100 5800 2    60   ~ 0
SNGate
$Comp
L +5V #PWR?
U 1 1 516B54A0
P 9200 4500
F 0 "#PWR?" H 9200 4590 20  0001 C CNN
F 1 "+5V" H 9200 4590 30  0000 C CNN
	1    9200 4500
	1    0    0    -1  
$EndComp
$Comp
L GND #PWR?
U 1 1 516B549F
P 9200 6200
F 0 "#PWR?" H 9200 6200 30  0001 C CNN
F 1 "GND" H 9200 6130 30  0001 C CNN
	1    9200 6200
	1    0    0    -1  
$EndComp
$Comp
L INDUCTOR L?
U 1 1 516B549E
P 9800 5200
F 0 "L?" V 9750 5200 40  0000 C CNN
F 1 "INDUCTOR" V 9900 5200 40  0000 C CNN
	1    9800 5200
	0    -1   -1   0   
$EndComp
$Comp
L R R?
U 1 1 516B549D
P 9400 4850
F 0 "R?" V 9480 4850 50  0000 C CNN
F 1 "R" V 9400 4850 50  0000 C CNN
	1    9400 4850
	1    0    0    -1  
$EndComp
Text Label 9400 4500 1    60   ~ 0
SW
Text Label 10800 5200 0    60   ~ 0
SFB
$Comp
L GND #PWR?
U 1 1 516B549C
P 10300 5800
F 0 "#PWR?" H 10300 5800 30  0001 C CNN
F 1 "GND" H 10300 5730 30  0001 C CNN
	1    10300 5800
	1    0    0    -1  
$EndComp
Text Label 6900 3000 0    60   ~ 0
CompOsc
Text Label 6900 3100 0    60   ~ 0
CompSw
Text Label 6900 2900 0    60   ~ 0
Freq
Text Label 6900 2800 0    60   ~ 0
SoftStart
NoConn ~ 6800 2700
NoConn ~ 6800 2600
Text Label 6900 2500 0    60   ~ 0
SyncIn
$Comp
L +5V #PWR?
U 1 1 516B549B
P 900 3400
F 0 "#PWR?" H 900 3490 20  0001 C CNN
F 1 "+5V" H 900 3490 30  0000 C CNN
	1    900  3400
	1    0    0    -1  
$EndComp
$Comp
L R R?
U 1 1 516B549A
P 900 3850
F 0 "R?" V 980 3850 50  0000 C CNN
F 1 "R" V 900 3850 50  0000 C CNN
	1    900  3850
	1    0    0    -1  
$EndComp
Text Label 900  4200 3    60   ~ 0
SyncIn
$Comp
L R R?
U 1 1 516B5499
P 1300 3850
F 0 "R?" V 1380 3850 50  0000 C CNN
F 1 "R" V 1300 3850 50  0000 C CNN
	1    1300 3850
	1    0    0    -1  
$EndComp
$Comp
L C C?
U 1 1 516B5498
P 1300 4400
F 0 "C?" H 1350 4500 50  0000 L CNN
F 1 "C" H 1350 4300 50  0000 L CNN
	1    1300 4400
	-1   0    0    -1  
$EndComp
$Comp
L C C?
U 1 1 516B5497
P 1700 4400
F 0 "C?" H 1750 4500 50  0000 L CNN
F 1 "C" H 1750 4300 50  0000 L CNN
	1    1700 4400
	-1   0    0    -1  
$EndComp
$Comp
L GND #PWR?
U 1 1 516B5496
P 1300 4700
F 0 "#PWR?" H 1300 4700 30  0001 C CNN
F 1 "GND" H 1300 4630 30  0001 C CNN
	1    1300 4700
	1    0    0    -1  
$EndComp
$Comp
L GND #PWR?
U 1 1 516B5495
P 1700 4700
F 0 "#PWR?" H 1700 4700 30  0001 C CNN
F 1 "GND" H 1700 4630 30  0001 C CNN
	1    1700 4700
	1    0    0    -1  
$EndComp
Text Label 1700 3500 2    60   ~ 0
CompOsc
$Comp
L C C?
U 1 1 516B5494
P 2300 4400
F 0 "C?" H 2350 4500 50  0000 L CNN
F 1 "C" H 2350 4300 50  0000 L CNN
	1    2300 4400
	-1   0    0    -1  
$EndComp
$Comp
L C C?
U 1 1 516B5493
P 2700 4400
F 0 "C?" H 2750 4500 50  0000 L CNN
F 1 "C" H 2750 4300 50  0000 L CNN
	1    2700 4400
	-1   0    0    -1  
$EndComp
$Comp
L R R?
U 1 1 516B5492
P 2300 3850
F 0 "R?" V 2380 3850 50  0000 C CNN
F 1 "R" V 2300 3850 50  0000 C CNN
	1    2300 3850
	1    0    0    -1  
$EndComp
Text Label 2300 3500 0    60   ~ 0
CompSw
$Comp
L GND #PWR?
U 1 1 516B5491
P 2300 4700
F 0 "#PWR?" H 2300 4700 30  0001 C CNN
F 1 "GND" H 2300 4630 30  0001 C CNN
	1    2300 4700
	1    0    0    -1  
$EndComp
$Comp
L GND #PWR?
U 1 1 516B5490
P 2700 4700
F 0 "#PWR?" H 2700 4700 30  0001 C CNN
F 1 "GND" H 2700 4630 30  0001 C CNN
	1    2700 4700
	1    0    0    -1  
$EndComp
$Comp
L C C?
U 1 1 516B548F
P 3200 1400
F 0 "C?" H 3250 1500 50  0000 L CNN
F 1 "0.1uF" H 3250 1300 50  0000 L CNN
	1    3200 1400
	-1   0    0    -1  
$EndComp
$Comp
L GND #PWR?
U 1 1 516B548E
P 3200 1700
F 0 "#PWR?" H 3200 1700 30  0001 C CNN
F 1 "GND" H 3200 1630 30  0001 C CNN
	1    3200 1700
	1    0    0    -1  
$EndComp
Text Label 3200 1100 1    60   ~ 0
SoftStart
$Comp
L R R?
U 1 1 516B548D
P 3700 1350
F 0 "R?" V 3780 1350 50  0000 C CNN
F 1 "R" V 3700 1350 50  0000 C CNN
	1    3700 1350
	1    0    0    -1  
$EndComp
$Comp
L GND #PWR?
U 1 1 516B548C
P 3700 1700
F 0 "#PWR?" H 3700 1700 30  0001 C CNN
F 1 "GND" H 3700 1630 30  0001 C CNN
	1    3700 1700
	1    0    0    -1  
$EndComp
Text Label 3700 1000 1    60   ~ 0
Freq
$Comp
L CONN_4 TP?
U 1 1 516B548B
P 5450 3950
F 0 "TP?" V 5400 3950 50  0000 C CNN
F 1 "TP_TEC" V 5500 3950 50  0000 C CNN
	1    5450 3950
	1    0    0    -1  
$EndComp
$Comp
L GND #PWR?
U 1 1 516B548A
P 5000 4200
F 0 "#PWR?" H 5000 4200 30  0001 C CNN
F 1 "GND" H 5000 4130 30  0001 C CNN
	1    5000 4200
	1    0    0    -1  
$EndComp
Text Label 4500 2800 2    60   ~ 0
VTEC
Text Label 4500 2900 2    60   ~ 0
ITEC
Text Label 4500 3000 2    60   ~ 0
TMPGD
Text Notes 5600 3850 0    60   ~ 0
Temp Good\nTEC Current\nTEC Voltage\nGround
$Comp
L C C?
U 1 1 516B5489
P 5200 1200
F 0 "C?" H 5250 1300 50  0000 L CNN
F 1 "0.1uF" H 5250 1100 50  0000 L CNN
F 4 "16V" H 5150 1100 60  0001 R CNN "Voltage"
F 5 "X5R" H 5150 1300 60  0001 R CNN "Dielectric"
	1    5200 1200
	-1   0    0    -1  
$EndComp
$Comp
L C C?
U 1 1 516B5488
P 9900 3400
F 0 "C?" H 9950 3500 50  0000 L CNN
F 1 "0.1uF" H 9950 3300 50  0000 L CNN
F 4 "16V" H 9850 3300 60  0001 R CNN "Voltage"
F 5 "X5R" H 9850 3500 60  0001 R CNN "Dielectric"
	1    9900 3400
	-1   0    0    -1  
$EndComp
$Comp
L C C?
U 1 1 516B5487
P 10300 5500
F 0 "C?" H 10350 5600 50  0000 L CNN
F 1 "10uF" H 10350 5400 50  0000 L CNN
F 4 "16V" H 10250 5400 60  0001 R CNN "Voltage"
F 5 "X5R" H 10250 5600 60  0001 R CNN "Dielectric"
	1    10300 5500
	-1   0    0    -1  
$EndComp
$Comp
L C C?
U 1 1 516B5486
P 9000 1500
F 0 "C?" H 9050 1600 50  0000 L CNN
F 1 "10uF" H 9050 1400 50  0000 L CNN
F 4 "16V" H 8950 1400 60  0001 R CNN "Voltage"
F 5 "X5R" H 8950 1600 60  0001 R CNN "Dielectric"
	1    9000 1500
	-1   0    0    -1  
$EndComp
$Comp
L C C?
U 1 1 516B5485
P 9400 1500
F 0 "C?" H 9450 1600 50  0000 L CNN
F 1 "10uF" H 9450 1400 50  0000 L CNN
F 4 "16V" H 9350 1400 60  0001 R CNN "Voltage"
F 5 "X5R" H 9350 1600 60  0001 R CNN "Dielectric"
	1    9400 1500
	-1   0    0    -1  
$EndComp
$Comp
L C C?
U 1 1 516B5484
P 9800 1500
F 0 "C?" H 9850 1600 50  0000 L CNN
F 1 "10uF" H 9850 1400 50  0000 L CNN
F 4 "16V" H 9750 1400 60  0001 R CNN "Voltage"
F 5 "X5R" H 9750 1600 60  0001 R CNN "Dielectric"
	1    9800 1500
	-1   0    0    -1  
$EndComp
$Comp
L C C?
U 1 1 516B5483
P 10200 1500
F 0 "C?" H 10250 1600 50  0000 L CNN
F 1 "10uF" H 10250 1400 50  0000 L CNN
F 4 "16V" H 10150 1400 60  0001 R CNN "Voltage"
F 5 "X5R" H 10150 1600 60  0001 R CNN "Dielectric"
	1    10200 1500
	-1   0    0    -1  
$EndComp
$Comp
L GND #PWR?
U 1 1 516B5482
P 10200 1800
F 0 "#PWR?" H 10200 1800 30  0001 C CNN
F 1 "GND" H 10200 1730 30  0001 C CNN
	1    10200 1800
	1    0    0    -1  
$EndComp
$Comp
L GND #PWR?
U 1 1 516B5481
P 9800 1800
F 0 "#PWR?" H 9800 1800 30  0001 C CNN
F 1 "GND" H 9800 1730 30  0001 C CNN
	1    9800 1800
	1    0    0    -1  
$EndComp
$Comp
L GND #PWR?
U 1 1 516B5480
P 9400 1800
F 0 "#PWR?" H 9400 1800 30  0001 C CNN
F 1 "GND" H 9400 1730 30  0001 C CNN
	1    9400 1800
	1    0    0    -1  
$EndComp
$Comp
L GND #PWR?
U 1 1 516B547F
P 9000 1800
F 0 "#PWR?" H 9000 1800 30  0001 C CNN
F 1 "GND" H 9000 1730 30  0001 C CNN
	1    9000 1800
	1    0    0    -1  
$EndComp
$Comp
L +5V #PWR?
U 1 1 516B547E
P 9000 1100
F 0 "#PWR?" H 9000 1190 20  0001 C CNN
F 1 "+5V" H 9000 1190 30  0000 C CNN
	1    9000 1100
	1    0    0    -1  
$EndComp
$Comp
L C C?
U 1 1 516B547D
P 10700 5500
F 0 "C?" H 10750 5600 50  0000 L CNN
F 1 "10uF" H 10750 5400 50  0000 L CNN
F 4 "16V" H 10650 5400 60  0001 R CNN "Voltage"
F 5 "X5R" H 10650 5600 60  0001 R CNN "Dielectric"
	1    10700 5500
	-1   0    0    -1  
$EndComp
$Comp
L GND #PWR?
U 1 1 516B547C
P 10700 5800
F 0 "#PWR?" H 10700 5800 30  0001 C CNN
F 1 "GND" H 10700 5730 30  0001 C CNN
	1    10700 5800
	1    0    0    -1  
$EndComp
$Comp
L C C?
U 1 1 516B547B
P 1000 1250
F 0 "C?" H 1050 1350 50  0000 L CNN
F 1 "0.1uF" H 1050 1150 50  0000 L CNN
F 4 "16V" H 950 1150 60  0001 R CNN "Voltage"
F 5 "X5R" H 950 1350 60  0001 R CNN "Dielectric"
	1    1000 1250
	1    0    0    -1  
$EndComp
$EndSCHEMATC
