EESchema Schematic File Version 2  date 4/19/2013 7:14:36 PM
LIBS:power
LIBS:device
LIBS:transistors
LIBS:conn
LIBS:linear
LIBS:regul
LIBS:74xx
LIBS:cmos4000
LIBS:adc-dac
LIBS:memory
LIBS:xilinx
LIBS:special
LIBS:microcontrollers
LIBS:dsp
LIBS:microchip
LIBS:analog_switches
LIBS:motorola
LIBS:texas
LIBS:intel
LIBS:audio
LIBS:interface
LIBS:digital-audio
LIBS:philips
LIBS:display
LIBS:cypress
LIBS:siliconi
LIBS:opto
LIBS:atmel
LIBS:contrib
LIBS:valves
LIBS:AeroDyne
LIBS:SiPMCosmicRay-cache
EELAYER 25  0
EELAYER END
$Descr A4 11700 8267
encoding utf-8
Sheet 6 6
Title "Cosmic Ray Detector"
Date "20 apr 2013"
Rev "1A"
Comp "Ethan Harstad"
Comment1 "https://github.com/ethanharstad/SiPMCosmicRay"
Comment2 "CC-BY-SA 3.0 License"
Comment3 ""
Comment4 ""
$EndDescr
Connection ~ 1300 3500
Wire Wire Line
	1300 3400 1300 3600
Wire Wire Line
	4900 3600 4500 3600
Wire Wire Line
	4500 3600 4500 3500
Wire Wire Line
	4500 3500 4400 3500
Wire Wire Line
	4200 5900 4200 6300
Connection ~ 3400 6000
Wire Wire Line
	3400 5900 3400 6000
Wire Wire Line
	8500 1000 8400 1000
Wire Wire Line
	1300 3500 1700 3500
Wire Wire Line
	10700 5800 10700 5700
Wire Wire Line
	10400 1500 10400 1600
Wire Wire Line
	9600 1500 9600 1600
Connection ~ 9600 1000
Wire Wire Line
	9600 1000 9600 1100
Connection ~ 9200 1000
Wire Wire Line
	10400 1100 10400 1000
Wire Wire Line
	10400 1000 9200 1000
Connection ~ 4800 3900
Wire Wire Line
	4900 3900 4400 3900
Connection ~ 4600 3700
Wire Wire Line
	4900 3700 4400 3700
Wire Wire Line
	5000 4800 4700 4800
Wire Wire Line
	4700 4800 4700 3800
Wire Wire Line
	5000 5000 4900 5000
Wire Wire Line
	4900 5000 4900 5100
Wire Wire Line
	3700 4000 3700 4100
Wire Wire Line
	3200 4600 3200 4700
Wire Wire Line
	2300 4600 2300 4700
Wire Wire Line
	2300 4100 2300 4200
Wire Wire Line
	1700 4700 1700 4600
Wire Wire Line
	1300 4100 1300 4200
Wire Wire Line
	1700 3500 1700 4200
Wire Wire Line
	900  3600 900  3800
Wire Wire Line
	6800 3700 6700 3700
Wire Wire Line
	6700 4000 6800 4000
Wire Wire Line
	6700 3900 6800 3900
Connection ~ 10300 3100
Wire Wire Line
	9800 3100 10400 3100
Wire Wire Line
	10100 5200 10800 5200
Wire Wire Line
	10300 5300 10300 4800
Connection ~ 9400 5200
Wire Wire Line
	9400 5100 9400 5200
Connection ~ 9200 5300
Wire Wire Line
	9200 5300 9100 5300
Wire Wire Line
	9100 5200 9500 5200
Wire Wire Line
	9100 4600 9200 4600
Wire Wire Line
	9200 4600 9200 4500
Wire Wire Line
	8100 5800 8200 5800
Wire Wire Line
	8200 3700 8100 3700
Wire Wire Line
	9100 2500 9200 2500
Wire Wire Line
	9200 2500 9200 2400
Wire Wire Line
	9100 4000 9200 4000
Wire Wire Line
	9200 4000 9200 4100
Connection ~ 9900 3100
Connection ~ 9200 3300
Wire Wire Line
	9100 3300 9200 3300
Wire Wire Line
	9100 3400 9200 3400
Wire Wire Line
	9200 3400 9200 2900
Wire Wire Line
	9100 3100 9300 3100
Wire Wire Line
	5500 4300 5500 4400
Wire Wire Line
	3100 7400 3100 7300
Wire Wire Line
	5400 6300 5400 5900
Wire Wire Line
	4800 6300 4900 6300
Wire Wire Line
	5500 6000 5100 6000
Connection ~ 6600 6000
Wire Wire Line
	6250 6300 6600 6300
Wire Wire Line
	6600 6300 6600 6000
Connection ~ 3100 6000
Wire Wire Line
	3100 5300 3100 5400
Wire Wire Line
	4800 3100 4900 3100
Wire Wire Line
	2400 5900 2400 6100
Wire Wire Line
	2400 5300 2400 5400
Connection ~ 1700 6750
Wire Wire Line
	1800 6750 1700 6750
Wire Wire Line
	1700 6150 1700 5950
Wire Wire Line
	1700 7450 1700 7350
Wire Wire Line
	1000 6750 1000 6650
Wire Wire Line
	1000 5350 1000 5450
Wire Wire Line
	4800 3000 4900 3000
Wire Wire Line
	4800 2900 4900 2900
Wire Wire Line
	4800 2800 4900 2800
Wire Wire Line
	4600 2700 4900 2700
Wire Wire Line
	8400 900  8400 1100
Connection ~ 5500 1800
Wire Wire Line
	5500 2300 5500 1800
Wire Wire Line
	6500 1800 6050 1800
Wire Wire Line
	5100 2300 5100 2400
Wire Wire Line
	6500 2400 6500 2300
Wire Wire Line
	5100 1900 5100 1800
Wire Wire Line
	5100 1800 5550 1800
Wire Wire Line
	6100 2300 6100 1800
Connection ~ 6100 1800
Wire Wire Line
	8400 1600 8400 1500
Connection ~ 8400 1000
Wire Wire Line
	1000 5950 1000 6150
Wire Wire Line
	1100 6050 1000 6050
Connection ~ 1000 6050
Wire Wire Line
	1700 6650 1700 6850
Wire Wire Line
	1700 5350 1700 5450
Wire Wire Line
	1800 6050 1700 6050
Connection ~ 1700 6050
Wire Wire Line
	2400 6700 2400 6600
Wire Wire Line
	2500 6000 2400 6000
Connection ~ 2400 6000
Wire Wire Line
	3100 6600 3100 6800
Wire Wire Line
	3100 5900 3100 6100
Wire Wire Line
	6500 6000 6700 6000
Wire Wire Line
	4200 6300 4300 6300
Connection ~ 4200 6000
Wire Wire Line
	5300 6300 5850 6300
Connection ~ 5400 6000
Connection ~ 5400 6300
Wire Wire Line
	6000 6000 6100 6000
Wire Wire Line
	4800 3200 4900 3200
Wire Wire Line
	4800 3300 4900 3300
Wire Wire Line
	4800 3400 4900 3400
Wire Wire Line
	4800 3500 4900 3500
Wire Wire Line
	6100 4400 6100 4300
Wire Wire Line
	6700 2600 6800 2600
Wire Wire Line
	6700 2700 6800 2700
Wire Wire Line
	6700 2800 6800 2800
Wire Wire Line
	6700 2900 6800 2900
Connection ~ 9200 3100
Wire Wire Line
	9200 3200 9100 3200
Connection ~ 9200 3200
Wire Wire Line
	10300 3100 10300 3800
Wire Wire Line
	9900 3600 9900 3700
Wire Wire Line
	8100 2800 8200 2800
Wire Wire Line
	6700 3000 6800 3000
Wire Wire Line
	6700 3100 6800 3100
Wire Wire Line
	6700 3200 6800 3200
Wire Wire Line
	6700 3300 6800 3300
Wire Wire Line
	8100 4900 8200 4900
Wire Wire Line
	9200 6200 9200 6100
Wire Wire Line
	9200 6100 9100 6100
Wire Wire Line
	9100 5500 9200 5500
Wire Wire Line
	9200 5500 9200 5200
Connection ~ 9200 5200
Wire Wire Line
	9200 5400 9100 5400
Connection ~ 9200 5400
Wire Wire Line
	9400 4500 9400 4600
Connection ~ 10300 5200
Wire Wire Line
	9900 3200 9900 3100
Wire Wire Line
	10300 5800 10300 5700
Wire Wire Line
	6700 3800 6800 3800
Wire Wire Line
	6800 3400 6700 3400
Wire Wire Line
	900  4300 900  4400
Wire Wire Line
	1300 4700 1300 4600
Wire Wire Line
	2700 3500 2300 3500
Wire Wire Line
	2700 3500 2700 4200
Wire Wire Line
	2700 4700 2700 4600
Wire Wire Line
	3200 4100 3200 4200
Wire Wire Line
	3700 4700 3700 4600
Wire Wire Line
	6500 1900 6500 1700
Connection ~ 6500 1800
Wire Wire Line
	4800 3900 4800 4700
Wire Wire Line
	4800 4700 5000 4700
Wire Wire Line
	4600 3700 4600 4900
Wire Wire Line
	4600 4900 5000 4900
Wire Wire Line
	4900 3800 4400 3800
Connection ~ 4700 3800
Wire Wire Line
	9200 900  9200 1100
Wire Wire Line
	10000 1000 10000 1100
Connection ~ 10000 1000
Wire Wire Line
	9200 1500 9200 1600
Wire Wire Line
	10000 1500 10000 1600
Wire Wire Line
	10700 5200 10700 5300
Connection ~ 10700 5200
Wire Wire Line
	2300 3500 2300 3600
Wire Wire Line
	3500 6000 3100 6000
Wire Wire Line
	4000 6000 4600 6000
Wire Wire Line
	4700 2600 4700 2700
Connection ~ 4700 2700
$Comp
L +2.5V #PWR?
U 1 1 5171DD86
P 1300 3400
F 0 "#PWR?" H 1300 3350 20  0001 C CNN
F 1 "+2.5V" H 1300 3500 30  0000 C CNN
	1    1300 3400
	1    0    0    -1  
$EndComp
Text Notes 1400 3200 0    60   ~ 12
Oscillator Compensation
Text Notes 3550 4650 1    60   ~ 12
Freq Set - ?kHz
Text Notes 2300 6350 1    60   ~ 12
Thermistor Bias
Text Notes 1600 6850 1    60   ~ 12
Current Limit - ?A
Text Notes 900  6500 1    60   ~ 12
Voltage Limit - ?V
$Comp
L R R?
U 1 1 517092B2
P 3100 5650
F 0 "R?" V 3180 5650 50  0000 C CNN
F 1 "R" V 3100 5650 50  0000 C CNN
F 4 "1%" V 3000 5650 60  0000 C CNN "Tolerance"
	1    3100 5650
	1    0    0    -1  
$EndComp
$Comp
L R R?
U 1 1 516B54B2
P 3100 6350
F 0 "R?" V 3180 6350 50  0000 C CNN
F 1 "R" V 3100 6350 50  0000 C CNN
F 4 "1%" V 3000 6350 60  0000 C CNN "Tolerance"
	1    3100 6350
	1    0    0    -1  
$EndComp
Text Notes 2900 6700 1    60   ~ 12
Thermistor Excitation
Text Notes 4800 6700 0    60   ~ 12
PID Compensation Network
Text Notes 10900 2400 2    60   ~ 12
Peltier Cooler
Text Notes 9000 1800 0    60   ~ 12
Power Decoupling
Text GLabel 4700 2600 1    60   Output ~ 0
TempRef
Text HLabel 4400 3500 0    60   Input ~ 0
TempSet
$Comp
L +2.5V #PWR?
U 1 1 516B558D
P 3100 5300
F 0 "#PWR?" H 3100 5250 20  0001 C CNN
F 1 "+2.5V" H 3100 5400 30  0000 C CNN
	1    3100 5300
	1    0    0    -1  
$EndComp
$Comp
L +2.5V #PWR?
U 1 1 516B558B
P 2400 5300
F 0 "#PWR?" H 2400 5250 20  0001 C CNN
F 1 "+2.5V" H 2400 5400 30  0000 C CNN
	1    2400 5300
	1    0    0    -1  
$EndComp
$Comp
L +2.5V #PWR?
U 1 1 516B5589
P 1700 5350
F 0 "#PWR?" H 1700 5300 20  0001 C CNN
F 1 "+2.5V" H 1700 5450 30  0000 C CNN
	1    1700 5350
	1    0    0    -1  
$EndComp
$Comp
L +2.5V #PWR?
U 1 1 516B5586
P 1000 5350
F 0 "#PWR?" H 1000 5300 20  0001 C CNN
F 1 "+2.5V" H 1000 5450 30  0000 C CNN
	1    1000 5350
	1    0    0    -1  
$EndComp
$Comp
L ADN8831 U?
U 1 1 516B54C6
P 5800 3300
F 0 "U?" H 5800 3350 60  0000 C CNN
F 1 "ADN8831" H 5800 3250 60  0000 C CNN
	1    5800 3300
	1    0    0    -1  
$EndComp
$Comp
L R R?
U 1 1 516B54C5
P 5800 1800
F 0 "R?" V 5880 1800 50  0000 C CNN
F 1 "R" V 5800 1800 50  0000 C CNN
	1    5800 1800
	0    -1   -1   0   
$EndComp
$Comp
L C C?
U 1 1 516B54C4
P 6500 2100
F 0 "C?" H 6550 2200 50  0000 L CNN
F 1 "0.1uF" H 6550 2000 50  0000 L CNN
F 4 "16V" H 6450 2000 60  0001 R CNN "Voltage"
F 5 "X5R" H 6450 2200 60  0001 R CNN "Dielectric"
	1    6500 2100
	-1   0    0    -1  
$EndComp
$Comp
L GND #PWR?
U 1 1 516B54C3
P 6500 2400
F 0 "#PWR?" H 6500 2400 30  0001 C CNN
F 1 "GND" H 6500 2330 30  0001 C CNN
	1    6500 2400
	1    0    0    -1  
$EndComp
$Comp
L GND #PWR?
U 1 1 516B54C2
P 5100 2400
F 0 "#PWR?" H 5100 2400 30  0001 C CNN
F 1 "GND" H 5100 2330 30  0001 C CNN
	1    5100 2400
	1    0    0    -1  
$EndComp
$Comp
L +5V #PWR?
U 1 1 516B54C1
P 6500 1700
F 0 "#PWR?" H 6500 1790 20  0001 C CNN
F 1 "+5V" H 6500 1790 30  0000 C CNN
	1    6500 1700
	1    0    0    -1  
$EndComp
$Comp
L +2.5V #PWR?
U 1 1 516B54C0
P 8400 900
F 0 "#PWR?" H 8400 850 20  0001 C CNN
F 1 "+2.5V" H 8400 1000 30  0000 C CNN
	1    8400 900 
	1    0    0    -1  
$EndComp
$Comp
L THERMISTOR RT?
U 1 1 516B54BF
P 3100 7050
F 0 "RT?" V 3200 7100 50  0000 C CNN
F 1 "10k" V 3000 7050 50  0000 C CNN
	1    3100 7050
	1    0    0    -1  
$EndComp
$Comp
L GND #PWR?
U 1 1 516B54BE
P 8400 1600
F 0 "#PWR?" H 8400 1600 30  0001 C CNN
F 1 "GND" H 8400 1530 30  0001 C CNN
	1    8400 1600
	1    0    0    -1  
$EndComp
$Comp
L R R?
U 1 1 516B54BD
P 1000 5700
F 0 "R?" V 1080 5700 50  0000 C CNN
F 1 "R" V 1000 5700 50  0000 C CNN
	1    1000 5700
	1    0    0    -1  
$EndComp
$Comp
L R R?
U 1 1 516B54BC
P 1000 6400
F 0 "R?" V 1080 6400 50  0000 C CNN
F 1 "R" V 1000 6400 50  0000 C CNN
	1    1000 6400
	1    0    0    -1  
$EndComp
Text Label 4600 2700 2    60   ~ 0
Ref
Text Label 4800 2800 2    60   ~ 0
VLim
Text Label 4800 2900 2    60   ~ 0
ILimC
Text Label 4800 3000 2    60   ~ 0
ILimH
Text Label 8500 1000 0    60   ~ 0
Ref
$Comp
L GND #PWR?
U 1 1 516B54BB
P 1000 6750
F 0 "#PWR?" H 1000 6750 30  0001 C CNN
F 1 "GND" H 1000 6680 30  0001 C CNN
	1    1000 6750
	1    0    0    -1  
$EndComp
Text Label 1100 6050 0    60   ~ 0
VLim
$Comp
L R R?
U 1 1 516B54BA
P 1700 5700
F 0 "R?" V 1780 5700 50  0000 C CNN
F 1 "R" V 1700 5700 50  0000 C CNN
	1    1700 5700
	1    0    0    -1  
$EndComp
$Comp
L R R?
U 1 1 516B54B9
P 1700 6400
F 0 "R?" V 1780 6400 50  0000 C CNN
F 1 "R" V 1700 6400 50  0000 C CNN
	1    1700 6400
	1    0    0    -1  
$EndComp
$Comp
L R R?
U 1 1 516B54B8
P 1700 7100
F 0 "R?" V 1780 7100 50  0000 C CNN
F 1 "R" V 1700 7100 50  0000 C CNN
	1    1700 7100
	1    0    0    -1  
$EndComp
$Comp
L GND #PWR?
U 1 1 516B54B7
P 1700 7450
F 0 "#PWR?" H 1700 7450 30  0001 C CNN
F 1 "GND" H 1700 7380 30  0001 C CNN
	1    1700 7450
	1    0    0    -1  
$EndComp
Text Label 1800 6050 0    60   ~ 0
ILimC
Text Label 1800 6750 0    60   ~ 0
ILimH
$Comp
L R R?
U 1 1 516B54B6
P 2400 5650
F 0 "R?" V 2480 5650 50  0000 C CNN
F 1 "100k" V 2400 5650 50  0000 C CNN
	1    2400 5650
	1    0    0    -1  
$EndComp
$Comp
L R R?
U 1 1 516B54B5
P 2400 6350
F 0 "R?" V 2480 6350 50  0000 C CNN
F 1 "100k" V 2400 6350 50  0000 C CNN
	1    2400 6350
	1    0    0    -1  
$EndComp
$Comp
L GND #PWR?
U 1 1 516B54B4
P 2400 6700
F 0 "#PWR?" H 2400 6700 30  0001 C CNN
F 1 "GND" H 2400 6630 30  0001 C CNN
	1    2400 6700
	1    0    0    -1  
$EndComp
Text Label 2500 6000 0    60   ~ 0
In1P
Text Label 4800 3100 2    60   ~ 0
In1P
$Comp
L R R?
U 1 1 516B54B1
P 3750 6000
F 0 "R?" V 3830 6000 50  0000 C CNN
F 1 "R" V 3750 6000 50  0000 C CNN
	1    3750 6000
	0    -1   -1   0   
$EndComp
Text Label 3400 5900 1    60   ~ 0
In1N
Text Label 4200 5900 1    60   ~ 0
Out1
$Comp
L R R?
U 1 1 516B54B0
P 4850 6000
F 0 "R?" V 4930 6000 50  0000 C CNN
F 1 "R" V 4850 6000 50  0000 C CNN
	1    4850 6000
	0    -1   -1   0   
$EndComp
$Comp
L R R?
U 1 1 516B54AF
P 4550 6300
F 0 "R?" V 4630 6300 50  0000 C CNN
F 1 "R" V 4550 6300 50  0000 C CNN
	1    4550 6300
	0    -1   -1   0   
$EndComp
$Comp
L C C?
U 1 1 516B54AE
P 5100 6300
F 0 "C?" H 5150 6400 50  0000 L CNN
F 1 "C" H 5150 6200 50  0000 L CNN
	1    5100 6300
	0    -1   -1   0   
$EndComp
$Comp
L C C?
U 1 1 516B54AD
P 6050 6300
F 0 "C?" H 6100 6400 50  0000 L CNN
F 1 "C" H 6100 6200 50  0000 L CNN
	1    6050 6300
	0    -1   -1   0   
$EndComp
$Comp
L R R?
U 1 1 516B54AC
P 5750 6000
F 0 "R?" V 5830 6000 50  0000 C CNN
F 1 "R" V 5750 6000 50  0000 C CNN
	1    5750 6000
	0    -1   -1   0   
$EndComp
$Comp
L C C?
U 1 1 516B54AB
P 6300 6000
F 0 "C?" H 6350 6100 50  0000 L CNN
F 1 "C" H 6350 5900 50  0000 L CNN
	1    6300 6000
	0    -1   -1   0   
$EndComp
Text Label 6700 6000 0    60   ~ 0
Out2
Text Label 5400 5900 1    60   ~ 0
In2N
Text Label 4800 3200 2    60   ~ 0
In1N
Text Label 4800 3300 2    60   ~ 0
Out1
Text Label 4800 3400 2    60   ~ 0
In2N
Text Label 4800 3500 2    60   ~ 0
Out2
$Comp
L GND #PWR?
U 1 1 516B54AA
P 3100 7400
F 0 "#PWR?" H 3100 7400 30  0001 C CNN
F 1 "GND" H 3100 7330 30  0001 C CNN
	1    3100 7400
	1    0    0    -1  
$EndComp
$Comp
L GND #PWR?
U 1 1 516B54A9
P 5500 4400
F 0 "#PWR?" H 5500 4400 30  0001 C CNN
F 1 "GND" H 5500 4330 30  0001 C CNN
	1    5500 4400
	1    0    0    -1  
$EndComp
$Comp
L GND #PWR?
U 1 1 516B54A8
P 6100 4400
F 0 "#PWR?" H 6100 4400 30  0001 C CNN
F 1 "GND" H 6100 4330 30  0001 C CNN
	1    6100 4400
	1    0    0    -1  
$EndComp
$Comp
L MOS_DUAL_PN Q?
U 1 1 516B54A7
P 8650 3250
F 0 "Q?" H 8650 4150 60  0000 C CNN
F 1 "AO4629" H 8650 2350 60  0000 C CNN
	1    8650 3250
	1    0    0    -1  
$EndComp
Text Label 8100 2800 2    60   ~ 0
LPGate
Text Label 8100 3700 2    60   ~ 0
LNGate
Text Label 6800 2600 0    60   ~ 0
LPGate
Text Label 6800 2700 0    60   ~ 0
LFB
Text Label 6800 2800 0    60   ~ 0
LNGate
Text Label 6800 2900 0    60   ~ 0
CS
$Comp
L R R?
U 1 1 516B54A6
P 9550 3100
F 0 "R?" V 9630 3100 50  0000 C CNN
F 1 "R" V 9550 3100 50  0000 C CNN
	1    9550 3100
	0    -1   -1   0   
$EndComp
Text Label 9200 2900 1    60   ~ 0
LFB
Text Label 10400 3100 0    60   ~ 0
CS
$Comp
L TEC TC?
U 1 1 516B54A5
P 10300 4300
F 0 "TC?" H 10300 4350 60  0000 C CNN
F 1 "TEC" H 10300 4250 60  0000 C CNN
	1    10300 4300
	0    1    1    0   
$EndComp
$Comp
L GND #PWR?
U 1 1 516B54A4
P 9900 3700
F 0 "#PWR?" H 9900 3700 30  0001 C CNN
F 1 "GND" H 9900 3630 30  0001 C CNN
	1    9900 3700
	1    0    0    -1  
$EndComp
$Comp
L GND #PWR?
U 1 1 516B54A3
P 9200 4100
F 0 "#PWR?" H 9200 4100 30  0001 C CNN
F 1 "GND" H 9200 4030 30  0001 C CNN
	1    9200 4100
	1    0    0    -1  
$EndComp
$Comp
L +5V #PWR?
U 1 1 516B54A2
P 9200 2400
F 0 "#PWR?" H 9200 2490 20  0001 C CNN
F 1 "+5V" H 9200 2490 30  0000 C CNN
	1    9200 2400
	1    0    0    -1  
$EndComp
$Comp
L MOS_DUAL_PN Q?
U 1 1 516B54A1
P 8650 5350
F 0 "Q?" H 8650 6250 60  0000 C CNN
F 1 "AO4629" H 8650 4450 60  0000 C CNN
	1    8650 5350
	1    0    0    -1  
$EndComp
Text Label 6800 3000 0    60   ~ 0
SFB
Text Label 6800 3100 0    60   ~ 0
SPGate
Text Label 6800 3200 0    60   ~ 0
SW
Text Label 6800 3300 0    60   ~ 0
SNGate
Text Label 8100 4900 2    60   ~ 0
SPGate
Text Label 8100 5800 2    60   ~ 0
SNGate
$Comp
L +5V #PWR?
U 1 1 516B54A0
P 9200 4500
F 0 "#PWR?" H 9200 4590 20  0001 C CNN
F 1 "+5V" H 9200 4590 30  0000 C CNN
	1    9200 4500
	1    0    0    -1  
$EndComp
$Comp
L GND #PWR?
U 1 1 516B549F
P 9200 6200
F 0 "#PWR?" H 9200 6200 30  0001 C CNN
F 1 "GND" H 9200 6130 30  0001 C CNN
	1    9200 6200
	1    0    0    -1  
$EndComp
$Comp
L INDUCTOR L?
U 1 1 516B549E
P 9800 5200
F 0 "L?" V 9750 5200 40  0000 C CNN
F 1 "INDUCTOR" V 9900 5200 40  0000 C CNN
	1    9800 5200
	0    -1   -1   0   
$EndComp
$Comp
L R R?
U 1 1 516B549D
P 9400 4850
F 0 "R?" V 9480 4850 50  0000 C CNN
F 1 "R" V 9400 4850 50  0000 C CNN
	1    9400 4850
	1    0    0    -1  
$EndComp
Text Label 9400 4500 1    60   ~ 0
SW
Text Label 10800 5200 0    60   ~ 0
SFB
$Comp
L GND #PWR?
U 1 1 516B549C
P 10300 5800
F 0 "#PWR?" H 10300 5800 30  0001 C CNN
F 1 "GND" H 10300 5730 30  0001 C CNN
	1    10300 5800
	1    0    0    -1  
$EndComp
Text Label 6800 3900 0    60   ~ 0
CompOsc
Text Label 6800 4000 0    60   ~ 0
CompSw
Text Label 6800 3800 0    60   ~ 0
Freq
Text Label 6800 3700 0    60   ~ 0
SoftStart
NoConn ~ 6700 3600
NoConn ~ 6700 3500
Text Label 6800 3400 0    60   ~ 0
SyncIn
$Comp
L +5V #PWR?
U 1 1 516B549B
P 900 3600
F 0 "#PWR?" H 900 3690 20  0001 C CNN
F 1 "+5V" H 900 3690 30  0000 C CNN
	1    900  3600
	1    0    0    -1  
$EndComp
$Comp
L R R?
U 1 1 516B549A
P 900 4050
F 0 "R?" V 980 4050 50  0000 C CNN
F 1 "100k" V 900 4050 50  0000 C CNN
	1    900  4050
	1    0    0    -1  
$EndComp
Text Label 900  4400 3    60   ~ 0
SyncIn
$Comp
L R R?
U 1 1 516B5499
P 1300 3850
F 0 "R?" V 1380 3850 50  0000 C CNN
F 1 "R" V 1300 3850 50  0000 C CNN
	1    1300 3850
	1    0    0    -1  
$EndComp
$Comp
L C C?
U 1 1 516B5498
P 1300 4400
F 0 "C?" H 1350 4500 50  0000 L CNN
F 1 "C" H 1350 4300 50  0000 L CNN
	1    1300 4400
	-1   0    0    -1  
$EndComp
$Comp
L C C?
U 1 1 516B5497
P 1700 4400
F 0 "C?" H 1750 4500 50  0000 L CNN
F 1 "C" H 1750 4300 50  0000 L CNN
	1    1700 4400
	-1   0    0    -1  
$EndComp
$Comp
L GND #PWR?
U 1 1 516B5496
P 1300 4700
F 0 "#PWR?" H 1300 4700 30  0001 C CNN
F 1 "GND" H 1300 4630 30  0001 C CNN
	1    1300 4700
	1    0    0    -1  
$EndComp
$Comp
L GND #PWR?
U 1 1 516B5495
P 1700 4700
F 0 "#PWR?" H 1700 4700 30  0001 C CNN
F 1 "GND" H 1700 4630 30  0001 C CNN
	1    1700 4700
	1    0    0    -1  
$EndComp
Text Label 1400 3500 0    60   ~ 0
CompOsc
$Comp
L C C?
U 1 1 516B5494
P 2300 4400
F 0 "C?" H 2350 4500 50  0000 L CNN
F 1 "C" H 2350 4300 50  0000 L CNN
	1    2300 4400
	-1   0    0    -1  
$EndComp
$Comp
L C C?
U 1 1 516B5493
P 2700 4400
F 0 "C?" H 2750 4500 50  0000 L CNN
F 1 "C" H 2750 4300 50  0000 L CNN
	1    2700 4400
	-1   0    0    -1  
$EndComp
$Comp
L R R?
U 1 1 516B5492
P 2300 3850
F 0 "R?" V 2380 3850 50  0000 C CNN
F 1 "R" V 2300 3850 50  0000 C CNN
	1    2300 3850
	1    0    0    -1  
$EndComp
Text Label 2300 3500 0    60   ~ 0
CompSw
$Comp
L GND #PWR?
U 1 1 516B5491
P 2300 4700
F 0 "#PWR?" H 2300 4700 30  0001 C CNN
F 1 "GND" H 2300 4630 30  0001 C CNN
	1    2300 4700
	1    0    0    -1  
$EndComp
$Comp
L GND #PWR?
U 1 1 516B5490
P 2700 4700
F 0 "#PWR?" H 2700 4700 30  0001 C CNN
F 1 "GND" H 2700 4630 30  0001 C CNN
	1    2700 4700
	1    0    0    -1  
$EndComp
$Comp
L C C?
U 1 1 516B548F
P 3200 4400
F 0 "C?" H 3250 4500 50  0000 L CNN
F 1 "0.1uF" H 3250 4300 50  0000 L CNN
	1    3200 4400
	-1   0    0    -1  
$EndComp
$Comp
L GND #PWR?
U 1 1 516B548E
P 3200 4700
F 0 "#PWR?" H 3200 4700 30  0001 C CNN
F 1 "GND" H 3200 4630 30  0001 C CNN
	1    3200 4700
	1    0    0    -1  
$EndComp
Text Label 3200 4100 1    60   ~ 0
SoftStart
$Comp
L R R?
U 1 1 516B548D
P 3700 4350
F 0 "R?" V 3780 4350 50  0000 C CNN
F 1 "R" V 3700 4350 50  0000 C CNN
	1    3700 4350
	1    0    0    -1  
$EndComp
$Comp
L GND #PWR?
U 1 1 516B548C
P 3700 4700
F 0 "#PWR?" H 3700 4700 30  0001 C CNN
F 1 "GND" H 3700 4630 30  0001 C CNN
	1    3700 4700
	1    0    0    -1  
$EndComp
Text Label 3700 4000 1    60   ~ 0
Freq
$Comp
L CONN_4 TP?
U 1 1 516B548B
P 5350 4850
F 0 "TP?" V 5300 4850 50  0000 C CNN
F 1 "TP_TEC" V 5400 4850 50  0000 C CNN
	1    5350 4850
	1    0    0    -1  
$EndComp
$Comp
L GND #PWR?
U 1 1 516B548A
P 4900 5100
F 0 "#PWR?" H 4900 5100 30  0001 C CNN
F 1 "GND" H 4900 5030 30  0001 C CNN
	1    4900 5100
	1    0    0    -1  
$EndComp
Text Label 4400 3700 2    60   ~ 0
VTEC
Text Label 4400 3800 2    60   ~ 0
ITEC
Text Label 4400 3900 2    60   ~ 0
TMPGD
Text Notes 5500 4750 0    60   ~ 0
Temp Good\nTEC Current\nTEC Voltage\nGround
$Comp
L C C?
U 1 1 516B5489
P 5100 2100
F 0 "C?" H 5150 2200 50  0000 L CNN
F 1 "0.1uF" H 5150 2000 50  0000 L CNN
F 4 "16V" H 5050 2000 60  0001 R CNN "Voltage"
F 5 "X5R" H 5050 2200 60  0001 R CNN "Dielectric"
	1    5100 2100
	-1   0    0    -1  
$EndComp
$Comp
L C C?
U 1 1 516B5488
P 9900 3400
F 0 "C?" H 9950 3500 50  0000 L CNN
F 1 "0.1uF" H 9950 3300 50  0000 L CNN
F 4 "16V" H 9850 3300 60  0001 R CNN "Voltage"
F 5 "X5R" H 9850 3500 60  0001 R CNN "Dielectric"
	1    9900 3400
	-1   0    0    -1  
$EndComp
$Comp
L C C?
U 1 1 516B5487
P 10300 5500
F 0 "C?" H 10350 5600 50  0000 L CNN
F 1 "10uF" H 10350 5400 50  0000 L CNN
F 4 "16V" H 10250 5400 60  0001 R CNN "Voltage"
F 5 "X5R" H 10250 5600 60  0001 R CNN "Dielectric"
	1    10300 5500
	-1   0    0    -1  
$EndComp
$Comp
L C C?
U 1 1 516B5486
P 9200 1300
F 0 "C?" H 9250 1400 50  0000 L CNN
F 1 "10uF" H 9250 1200 50  0000 L CNN
F 4 "16V" H 9150 1200 60  0001 R CNN "Voltage"
F 5 "X5R" H 9150 1400 60  0001 R CNN "Dielectric"
	1    9200 1300
	-1   0    0    -1  
$EndComp
$Comp
L C C?
U 1 1 516B5485
P 9600 1300
F 0 "C?" H 9650 1400 50  0000 L CNN
F 1 "10uF" H 9650 1200 50  0000 L CNN
F 4 "16V" H 9550 1200 60  0001 R CNN "Voltage"
F 5 "X5R" H 9550 1400 60  0001 R CNN "Dielectric"
	1    9600 1300
	-1   0    0    -1  
$EndComp
$Comp
L C C?
U 1 1 516B5484
P 10000 1300
F 0 "C?" H 10050 1400 50  0000 L CNN
F 1 "10uF" H 10050 1200 50  0000 L CNN
F 4 "16V" H 9950 1200 60  0001 R CNN "Voltage"
F 5 "X5R" H 9950 1400 60  0001 R CNN "Dielectric"
	1    10000 1300
	-1   0    0    -1  
$EndComp
$Comp
L C C?
U 1 1 516B5483
P 10400 1300
F 0 "C?" H 10450 1400 50  0000 L CNN
F 1 "10uF" H 10450 1200 50  0000 L CNN
F 4 "16V" H 10350 1200 60  0001 R CNN "Voltage"
F 5 "X5R" H 10350 1400 60  0001 R CNN "Dielectric"
	1    10400 1300
	-1   0    0    -1  
$EndComp
$Comp
L GND #PWR?
U 1 1 516B5482
P 10400 1600
F 0 "#PWR?" H 10400 1600 30  0001 C CNN
F 1 "GND" H 10400 1530 30  0001 C CNN
	1    10400 1600
	1    0    0    -1  
$EndComp
$Comp
L GND #PWR?
U 1 1 516B5481
P 10000 1600
F 0 "#PWR?" H 10000 1600 30  0001 C CNN
F 1 "GND" H 10000 1530 30  0001 C CNN
	1    10000 1600
	1    0    0    -1  
$EndComp
$Comp
L GND #PWR?
U 1 1 516B5480
P 9600 1600
F 0 "#PWR?" H 9600 1600 30  0001 C CNN
F 1 "GND" H 9600 1530 30  0001 C CNN
	1    9600 1600
	1    0    0    -1  
$EndComp
$Comp
L GND #PWR?
U 1 1 516B547F
P 9200 1600
F 0 "#PWR?" H 9200 1600 30  0001 C CNN
F 1 "GND" H 9200 1530 30  0001 C CNN
	1    9200 1600
	1    0    0    -1  
$EndComp
$Comp
L +5V #PWR?
U 1 1 516B547E
P 9200 900
F 0 "#PWR?" H 9200 990 20  0001 C CNN
F 1 "+5V" H 9200 990 30  0000 C CNN
	1    9200 900 
	1    0    0    -1  
$EndComp
$Comp
L C C?
U 1 1 516B547D
P 10700 5500
F 0 "C?" H 10750 5600 50  0000 L CNN
F 1 "10uF" H 10750 5400 50  0000 L CNN
F 4 "16V" H 10650 5400 60  0001 R CNN "Voltage"
F 5 "X5R" H 10650 5600 60  0001 R CNN "Dielectric"
	1    10700 5500
	-1   0    0    -1  
$EndComp
$Comp
L GND #PWR?
U 1 1 516B547C
P 10700 5800
F 0 "#PWR?" H 10700 5800 30  0001 C CNN
F 1 "GND" H 10700 5730 30  0001 C CNN
	1    10700 5800
	1    0    0    -1  
$EndComp
$Comp
L C C?
U 1 1 516B547B
P 8400 1300
F 0 "C?" H 8450 1400 50  0000 L CNN
F 1 "0.1uF" H 8450 1200 50  0000 L CNN
F 4 "16V" H 8350 1200 60  0001 R CNN "Voltage"
F 5 "X5R" H 8350 1400 60  0001 R CNN "Dielectric"
	1    8400 1300
	1    0    0    -1  
$EndComp
$EndSCHEMATC
