EESchema Schematic File Version 2  date 4/17/2013 7:49:12 PM
LIBS:power
LIBS:device
LIBS:transistors
LIBS:conn
LIBS:linear
LIBS:regul
LIBS:74xx
LIBS:cmos4000
LIBS:adc-dac
LIBS:memory
LIBS:xilinx
LIBS:special
LIBS:microcontrollers
LIBS:dsp
LIBS:microchip
LIBS:analog_switches
LIBS:motorola
LIBS:texas
LIBS:intel
LIBS:audio
LIBS:interface
LIBS:digital-audio
LIBS:philips
LIBS:display
LIBS:cypress
LIBS:siliconi
LIBS:opto
LIBS:atmel
LIBS:contrib
LIBS:valves
LIBS:AeroDyne
LIBS:SiPMCosmicRay-cache
EELAYER 25  0
EELAYER END
$Descr A4 11700 8267
encoding utf-8
Sheet 2 6
Title "Cosmic Ray Detector"
Date "17 apr 2013"
Rev "1A"
Comp "Ethan Harstad"
Comment1 "https://github.com/ethanharstad/SiPMCosmicRay"
Comment2 "CC-BY-SA 3.0 License"
Comment3 ""
Comment4 ""
$EndDescr
Wire Wire Line
	1500 1600 1500 1700
Connection ~ 1100 1100
Wire Wire Line
	1500 1200 1500 1100
Wire Wire Line
	1500 1100 1100 1100
Wire Wire Line
	2700 4800 2700 5000
Wire Wire Line
	1650 4750 1650 5000
Connection ~ 1100 4400
Wire Wire Line
	1200 4400 1100 4400
Wire Wire Line
	1100 4200 1100 4500
Wire Wire Line
	2700 4200 2700 4400
Wire Wire Line
	1100 3000 1100 3100
Wire Wire Line
	1100 2600 1100 2400
Wire Wire Line
	2300 2600 2300 2400
Wire Wire Line
	1700 3100 1700 3000
Wire Wire Line
	2300 3100 2300 3000
Wire Wire Line
	2200 2500 2300 2500
Connection ~ 2300 2500
Wire Wire Line
	1200 2500 1100 2500
Connection ~ 1100 2500
Wire Wire Line
	2100 4400 2200 4400
Wire Wire Line
	2200 4400 2200 4500
Wire Wire Line
	2100 4300 2700 4300
Connection ~ 2700 4300
Wire Wire Line
	1200 4300 1100 4300
Connection ~ 1100 4300
Wire Wire Line
	1100 4900 1100 5000
Wire Wire Line
	2200 4900 2200 5000
Wire Wire Line
	1100 1000 1100 1200
Wire Wire Line
	1100 1600 1100 1700
$Comp
L +BATT #PWR?
U 1 1 516DF49D
P 1100 1000
F 0 "#PWR?" H 1100 950 20  0001 C CNN
F 1 "+BATT" H 1100 1100 30  0000 C CNN
	1    1100 1000
	1    0    0    -1  
$EndComp
$Comp
L GND #PWR?
U 1 1 516DF494
P 1500 1700
F 0 "#PWR?" H 1500 1700 30  0001 C CNN
F 1 "GND" H 1500 1630 30  0001 C CNN
	1    1500 1700
	1    0    0    -1  
$EndComp
$Comp
L GND #PWR?
U 1 1 516DF491
P 1100 1700
F 0 "#PWR?" H 1100 1700 30  0001 C CNN
F 1 "GND" H 1100 1630 30  0001 C CNN
	1    1100 1700
	1    0    0    -1  
$EndComp
$Comp
L C C?
U 1 1 516DF48A
P 1500 1400
F 0 "C?" H 1550 1500 50  0000 L CNN
F 1 "10uF" H 1550 1300 50  0000 L CNN
	1    1500 1400
	-1   0    0    -1  
$EndComp
$Comp
L C C?
U 1 1 516DF480
P 1100 1400
F 0 "C?" H 1150 1500 50  0000 L CNN
F 1 "10uF" H 1150 1300 50  0000 L CNN
	1    1100 1400
	-1   0    0    -1  
$EndComp
$Comp
L +BATT #PWR?
U 1 1 516CB878
P 1100 4200
F 0 "#PWR?" H 1100 4150 20  0001 C CNN
F 1 "+BATT" H 1100 4300 30  0000 C CNN
	1    1100 4200
	1    0    0    -1  
$EndComp
$Comp
L GND #PWR?
U 1 1 516CB872
P 2700 5000
F 0 "#PWR?" H 2700 5000 30  0001 C CNN
F 1 "GND" H 2700 4930 30  0001 C CNN
	1    2700 5000
	1    0    0    -1  
$EndComp
$Comp
L GND #PWR?
U 1 1 516CB870
P 2200 5000
F 0 "#PWR?" H 2200 5000 30  0001 C CNN
F 1 "GND" H 2200 4930 30  0001 C CNN
	1    2200 5000
	1    0    0    -1  
$EndComp
$Comp
L GND #PWR?
U 1 1 516CB86D
P 1650 5000
F 0 "#PWR?" H 1650 5000 30  0001 C CNN
F 1 "GND" H 1650 4930 30  0001 C CNN
	1    1650 5000
	1    0    0    -1  
$EndComp
$Comp
L GND #PWR?
U 1 1 516CB86A
P 1100 5000
F 0 "#PWR?" H 1100 5000 30  0001 C CNN
F 1 "GND" H 1100 4930 30  0001 C CNN
	1    1100 5000
	1    0    0    -1  
$EndComp
$Comp
L C C?
U 1 1 516CB860
P 1100 4700
F 0 "C?" H 1150 4800 50  0000 L CNN
F 1 "0.1uF" H 1150 4600 50  0000 L CNN
	1    1100 4700
	-1   0    0    -1  
$EndComp
$Comp
L +5VA #PWR?
U 1 1 516CB84D
P 2700 4200
F 0 "#PWR?" H 2700 4330 20  0001 C CNN
F 1 "+5VA" H 2700 4300 30  0000 C CNN
	1    2700 4200
	1    0    0    -1  
$EndComp
$Comp
L CP1 C?
U 1 1 516CB82C
P 2700 4600
F 0 "C?" H 2750 4700 50  0000 L CNN
F 1 "2.2uF" H 2750 4500 50  0000 L CNN
	1    2700 4600
	-1   0    0    -1  
$EndComp
$Comp
L C C?
U 1 1 516CB80A
P 2200 4700
F 0 "C?" H 2250 4800 50  0000 L CNN
F 1 "470pF" H 2250 4600 50  0000 L CNN
	1    2200 4700
	-1   0    0    -1  
$EndComp
$Comp
L MIC5219 U?
U 1 1 516CB804
P 1650 4300
F 0 "U?" H 1650 4300 60  0000 C CNN
F 1 "MIC5219-5" H 1650 4400 60  0000 C CNN
	1    1650 4300
	1    0    0    -1  
$EndComp
$Comp
L +BATT #PWR?
U 1 1 516C8D2E
P 1100 2400
F 0 "#PWR?" H 1100 2350 20  0001 C CNN
F 1 "+BATT" H 1100 2500 30  0000 C CNN
	1    1100 2400
	1    0    0    -1  
$EndComp
$Comp
L +5V #PWR?
U 1 1 516C8D22
P 2300 2400
F 0 "#PWR?" H 2300 2490 20  0001 C CNN
F 1 "+5V" H 2300 2490 30  0000 C CNN
	1    2300 2400
	1    0    0    -1  
$EndComp
$Comp
L GND #PWR?
U 1 1 516C8D19
P 2300 3100
F 0 "#PWR?" H 2300 3100 30  0001 C CNN
F 1 "GND" H 2300 3030 30  0001 C CNN
	1    2300 3100
	1    0    0    -1  
$EndComp
$Comp
L GND #PWR?
U 1 1 516C8D14
P 1100 3100
F 0 "#PWR?" H 1100 3100 30  0001 C CNN
F 1 "GND" H 1100 3030 30  0001 C CNN
	1    1100 3100
	1    0    0    -1  
$EndComp
$Comp
L GND #PWR?
U 1 1 516C8D0D
P 1700 3100
F 0 "#PWR?" H 1700 3100 30  0001 C CNN
F 1 "GND" H 1700 3030 30  0001 C CNN
	1    1700 3100
	1    0    0    -1  
$EndComp
$Comp
L C C?
U 1 1 516C8D02
P 1100 2800
F 0 "C?" H 1150 2900 50  0000 L CNN
F 1 "0.1uF" H 1150 2700 50  0000 L CNN
	1    1100 2800
	-1   0    0    -1  
$EndComp
$Comp
L CP1 C?
U 1 1 516C8CB0
P 2300 2800
F 0 "C?" H 2350 2900 50  0000 L CNN
F 1 "10uF" H 2350 2700 50  0000 L CNN
	1    2300 2800
	-1   0    0    -1  
$EndComp
$Comp
L REG_3 U?
U 1 1 516C8C9B
P 1700 2500
F 0 "U?" H 1700 2500 60  0000 C CNN
F 1 "MIC29300-5" H 1700 2600 60  0000 C CNN
	1    1700 2500
	1    0    0    -1  
$EndComp
$EndSCHEMATC
