EESchema Schematic File Version 2  date 5/5/2013 3:54:39 PM
LIBS:power
LIBS:device
LIBS:transistors
LIBS:conn
LIBS:linear
LIBS:regul
LIBS:74xx
LIBS:cmos4000
LIBS:adc-dac
LIBS:memory
LIBS:xilinx
LIBS:special
LIBS:microcontrollers
LIBS:dsp
LIBS:microchip
LIBS:analog_switches
LIBS:motorola
LIBS:texas
LIBS:intel
LIBS:audio
LIBS:interface
LIBS:digital-audio
LIBS:philips
LIBS:display
LIBS:cypress
LIBS:siliconi
LIBS:opto
LIBS:atmel
LIBS:contrib
LIBS:valves
LIBS:AeroDyne
LIBS:SiPMCosmicRay-cache
EELAYER 25  0
EELAYER END
$Descr A4 11700 8267
encoding utf-8
Sheet 2 7
Title "Cosmic Ray Detector"
Date "5 may 2013"
Rev "1A"
Comp "Ethan Harstad"
Comment1 "https://github.com/ethanharstad/SiPMCosmicRay"
Comment2 "CC-BY-SA 3.0 License"
Comment3 ""
Comment4 ""
$EndDescr
NoConn ~ 8200 5100
NoConn ~ 8200 5000
NoConn ~ 8200 4900
NoConn ~ 8200 4800
NoConn ~ 8200 4700
NoConn ~ 8200 4600
NoConn ~ 8200 4500
NoConn ~ 8200 4400
NoConn ~ 8200 4300
NoConn ~ 8200 4200
NoConn ~ 8200 4100
NoConn ~ 8200 4000
NoConn ~ 8200 3900
NoConn ~ 8200 3800
NoConn ~ 8200 3700
NoConn ~ 8200 3600
NoConn ~ 7100 5100
NoConn ~ 7100 5000
NoConn ~ 7100 4900
NoConn ~ 7100 4800
NoConn ~ 7100 4700
NoConn ~ 7100 4600
NoConn ~ 7100 4500
NoConn ~ 7100 4400
NoConn ~ 7100 4300
NoConn ~ 7100 4200
NoConn ~ 7100 4100
NoConn ~ 7100 4000
NoConn ~ 7100 3900
NoConn ~ 7100 3800
NoConn ~ 7100 3700
NoConn ~ 7100 3600
NoConn ~ 7100 3300
NoConn ~ 7100 3200
NoConn ~ 7100 3100
NoConn ~ 7100 3000
NoConn ~ 7100 2900
NoConn ~ 7100 2800
NoConn ~ 7100 2700
NoConn ~ 7100 2600
NoConn ~ 7100 2500
NoConn ~ 7100 2400
NoConn ~ 7100 2300
NoConn ~ 7100 2200
NoConn ~ 7100 2100
NoConn ~ 7100 2000
NoConn ~ 7100 1900
NoConn ~ 7100 1800
NoConn ~ 7100 1500
NoConn ~ 7100 1400
NoConn ~ 7100 1300
NoConn ~ 7100 1200
Wire Wire Line
	8600 2100 8200 2100
Wire Wire Line
	8600 2000 8200 2000
Wire Wire Line
	8600 1900 8200 1900
Wire Wire Line
	8600 1800 8200 1800
Wire Wire Line
	5200 4400 5200 4500
Wire Wire Line
	5200 5000 5200 5100
Wire Wire Line
	4200 4500 4300 4500
Wire Wire Line
	4200 4400 4300 4400
Wire Wire Line
	3200 1300 3200 1400
Wire Wire Line
	1000 1200 1000 1100
Wire Wire Line
	1000 1100 1800 1100
Wire Wire Line
	1400 1200 1400 1000
Wire Wire Line
	2400 2700 2500 2700
Wire Wire Line
	1800 2400 1800 2500
Wire Wire Line
	1000 1600 1000 1700
Wire Wire Line
	2100 2200 2100 2100
Wire Wire Line
	2100 2100 2500 2100
Wire Wire Line
	2500 1900 1800 1900
Wire Wire Line
	1400 1700 1400 1900
Connection ~ 3800 3300
Wire Wire Line
	3800 3300 3800 3200
Wire Wire Line
	4050 3300 3600 3300
Wire Wire Line
	3900 3400 3900 3200
Connection ~ 4600 1000
Wire Wire Line
	4900 1100 4900 1000
Wire Wire Line
	4900 1000 4600 1000
Connection ~ 4600 1800
Wire Wire Line
	4600 1700 4600 1800
Connection ~ 4600 2600
Wire Wire Line
	4600 2600 4500 2600
Connection ~ 4600 2400
Wire Wire Line
	4600 2400 4500 2400
Connection ~ 4600 2200
Wire Wire Line
	4600 2200 4500 2200
Connection ~ 4600 2000
Wire Wire Line
	4600 2800 4500 2800
Wire Wire Line
	5000 1800 4500 1800
Wire Wire Line
	1800 5100 1800 5200
Wire Wire Line
	2600 5600 2600 5700
Connection ~ 2900 4500
Connection ~ 2900 4600
Wire Wire Line
	2900 4600 2900 4300
Connection ~ 2900 4900
Wire Wire Line
	2900 4900 3000 4900
Wire Wire Line
	3000 4700 2900 4700
Wire Wire Line
	2900 4700 2900 5700
Connection ~ 4300 5100
Wire Wire Line
	4200 5100 4300 5100
Wire Wire Line
	2200 5200 2200 5000
Wire Wire Line
	2200 5000 3000 5000
Wire Wire Line
	2900 7400 2900 7300
Wire Wire Line
	3600 6700 3500 6700
Wire Wire Line
	3500 6700 3500 7400
Wire Wire Line
	3400 6400 3400 6800
Wire Wire Line
	3300 6900 3600 6900
Wire Wire Line
	3600 6500 3300 6500
Wire Wire Line
	3600 6600 3300 6600
Wire Wire Line
	3300 7100 3600 7100
Wire Wire Line
	3600 6800 2900 6800
Wire Wire Line
	2900 6800 2900 6900
Connection ~ 3400 6800
Wire Wire Line
	3600 7000 3500 7000
Connection ~ 3500 7000
Wire Wire Line
	3000 5100 2600 5100
Wire Wire Line
	2600 5100 2600 5200
Wire Wire Line
	4200 5000 4300 5000
Wire Wire Line
	4300 5000 4300 5300
Wire Wire Line
	4200 5200 4300 5200
Connection ~ 4300 5200
Wire Wire Line
	2900 4800 3000 4800
Connection ~ 2900 4800
Wire Wire Line
	3000 4600 1800 4600
Wire Wire Line
	1800 4600 1800 4700
Wire Wire Line
	3000 4500 2900 4500
Connection ~ 2900 4400
Wire Wire Line
	3000 4400 1400 4400
Wire Wire Line
	1400 4400 1400 4700
Wire Wire Line
	2200 5600 2200 5700
Wire Wire Line
	1400 5100 1400 5200
Wire Wire Line
	4500 2000 5000 2000
Wire Wire Line
	4500 2100 4600 2100
Connection ~ 4600 2100
Wire Wire Line
	4600 2300 4500 2300
Connection ~ 4600 2300
Wire Wire Line
	4600 2500 4500 2500
Connection ~ 4600 2500
Wire Wire Line
	4600 2700 4500 2700
Connection ~ 4600 2700
Wire Wire Line
	4600 900  4600 1100
Wire Wire Line
	4900 2000 4900 1500
Connection ~ 4900 2000
Wire Wire Line
	3600 3300 3600 3200
Connection ~ 3900 3300
Wire Wire Line
	3700 3200 3700 3300
Connection ~ 3700 3300
Wire Wire Line
	4600 2000 4600 3300
Wire Wire Line
	4600 3300 4450 3300
Connection ~ 4600 2800
Wire Wire Line
	2500 1800 1400 1800
Connection ~ 1400 1800
Wire Wire Line
	2400 2000 2500 2000
Connection ~ 2400 1900
Wire Wire Line
	2500 2300 2400 2300
Wire Wire Line
	2400 2300 2400 1900
Connection ~ 2400 2000
Wire Wire Line
	1400 2300 1400 2400
Wire Wire Line
	2100 2700 2100 2800
Wire Wire Line
	1000 2300 1000 2200
Wire Wire Line
	1800 1100 1800 2000
Connection ~ 1800 1900
Connection ~ 1400 1100
Wire Wire Line
	3100 1300 3100 1400
Wire Wire Line
	4300 4600 4200 4600
Wire Wire Line
	5500 5100 5500 5000
Wire Wire Line
	5500 4400 5500 4500
Wire Wire Line
	6700 800  7100 800 
Wire Wire Line
	6700 900  7100 900 
Wire Wire Line
	6700 1000 7100 1000
Wire Wire Line
	6700 1100 7100 1100
Text Label 8818 2100 2    60   ~ 0
MISO
Text Label 8818 2000 2    60   ~ 0
MOSI
Text Label 8776 1900 2    60   ~ 0
SCK
Text Label 8716 1800 2    60   ~ 0
CS
$Comp
L CK_MAX32 J2
U 6 1 5186A585
P 7900 3600
F 0 "J2" H 7900 3700 60  0000 C CNN
F 1 "CK_MAX32" V 7750 3350 60  0000 C CNN
	6    7900 3600
	1    0    0    -1  
$EndComp
$Comp
L CK_MAX32 J2
U 5 1 5186A565
P 7900 1800
F 0 "J2" H 7900 1900 60  0000 C CNN
F 1 "CK_MAX32" V 7750 1550 60  0000 C CNN
	5    7900 1800
	1    0    0    -1  
$EndComp
Text Label 6700 1100 2    60   ~ 0
GPS_In
Text Label 6700 1000 2    60   ~ 0
GPS_Out
Text Label 6700 900  2    60   ~ 0
SDA
Text Label 6700 800  2    60   ~ 0
SCL
$Comp
L +3.3V #PWR25
U 1 1 5186A26D
P 5500 4400
F 0 "#PWR25" H 5500 4360 30  0001 C CNN
F 1 "+3.3V" H 5500 4510 30  0000 C CNN
	1    5500 4400
	1    0    0    -1  
$EndComp
$Comp
L +3.3V #PWR24
U 1 1 5186A26A
P 5200 4400
F 0 "#PWR24" H 5200 4360 30  0001 C CNN
F 1 "+3.3V" H 5200 4510 30  0000 C CNN
	1    5200 4400
	1    0    0    -1  
$EndComp
Text Label 5500 5100 3    60   ~ 0
SDA
Text Label 5200 5100 3    60   ~ 0
SCL
$Comp
L R R5
U 1 1 5186A253
P 5500 4750
F 0 "R5" V 5580 4750 50  0000 C CNN
F 1 "R" V 5500 4750 50  0000 C CNN
	1    5500 4750
	1    0    0    -1  
$EndComp
$Comp
L R R4
U 1 1 5186A24F
P 5200 4750
F 0 "R4" V 5280 4750 50  0000 C CNN
F 1 "R" V 5200 4750 50  0000 C CNN
	1    5200 4750
	1    0    0    -1  
$EndComp
$Comp
L CK_MAX32 J2
U 10 1 51858ABC
P 7400 3600
F 0 "J2" H 7400 3700 60  0000 C CNN
F 1 "CK_MAX32" V 7250 3350 60  0000 C CNN
	10   7400 3600
	-1   0    0    -1  
$EndComp
$Comp
L CK_MAX32 J2
U 9 1 51858AB1
P 7400 1800
F 0 "J2" H 7400 1900 60  0000 C CNN
F 1 "CK_MAX32" V 7250 1550 60  0000 C CNN
	9    7400 1800
	-1   0    0    -1  
$EndComp
$Comp
L CK_MAX32 J2
U 8 1 51858A93
P 7400 800
F 0 "J2" H 7400 900 60  0000 C CNN
F 1 "CK_MAX32" V 7250 550 60  0000 C CNN
	8    7400 800 
	-1   0    0    -1  
$EndComp
Text Label 3200 1300 1    60   ~ 0
GPS_In
Text Label 3100 1300 1    60   ~ 0
GPS_Out
Text Label 4300 4600 0    60   ~ 0
Int
Text Label 4300 4500 0    60   ~ 0
SDA
Text Label 4300 4400 0    60   ~ 0
SCL
$Comp
L +3.3V #PWR8
U 1 1 51857DAE
P 1400 1000
F 0 "#PWR8" H 1400 960 30  0001 C CNN
F 1 "+3.3V" H 1400 1110 30  0000 C CNN
	1    1400 1000
	1    0    0    -1  
$EndComp
Text Label 1000 2300 3    60   ~ 0
LED
Text Label 2400 2700 2    60   ~ 0
LED
$Comp
L GND #PWR9
U 1 1 51857D59
P 1400 2400
F 0 "#PWR9" H 1400 2400 30  0001 C CNN
F 1 "GND" H 1400 2330 30  0001 C CNN
	1    1400 2400
	1    0    0    -1  
$EndComp
$Comp
L GND #PWR11
U 1 1 51857D57
P 1800 2500
F 0 "#PWR11" H 1800 2500 30  0001 C CNN
F 1 "GND" H 1800 2430 30  0001 C CNN
	1    1800 2500
	1    0    0    -1  
$EndComp
$Comp
L GND #PWR13
U 1 1 51857D55
P 2100 2800
F 0 "#PWR13" H 2100 2800 30  0001 C CNN
F 1 "GND" H 2100 2730 30  0001 C CNN
	1    2100 2800
	1    0    0    -1  
$EndComp
$Comp
L LED D1
U 1 1 51857D40
P 1000 1400
F 0 "D1" H 1000 1500 50  0000 C CNN
F 1 "LED" H 1000 1300 50  0000 C CNN
	1    1000 1400
	0    1    1    0   
$EndComp
$Comp
L R R1
U 1 1 51857D23
P 1000 1950
F 0 "R1" V 1080 1950 50  0000 C CNN
F 1 "330" V 1000 1950 50  0000 C CNN
	1    1000 1950
	1    0    0    -1  
$EndComp
NoConn ~ 2500 2200
$Comp
L R R3
U 1 1 51857CA2
P 2100 2450
F 0 "R3" V 2180 2450 50  0000 C CNN
F 1 "10k" V 2100 2450 50  0000 C CNN
	1    2100 2450
	1    0    0    -1  
$EndComp
$Comp
L C C3
U 1 1 51857BFB
P 1800 2200
F 0 "C3" H 1850 2300 50  0000 L CNN
F 1 "1uF" H 1850 2100 50  0000 L CNN
	1    1800 2200
	-1   0    0    -1  
$EndComp
$Comp
L C C1
U 1 1 51857BC8
P 1400 2100
F 0 "C1" H 1450 2200 50  0000 L CNN
F 1 "1uF" H 1450 2000 50  0000 L CNN
	1    1400 2100
	-1   0    0    -1  
$EndComp
$Comp
L R R2
U 1 1 51857BC5
P 1400 1450
F 0 "R2" V 1480 1450 50  0000 C CNN
F 1 "33k" V 1400 1450 50  0000 C CNN
	1    1400 1450
	-1   0    0    -1  
$EndComp
NoConn ~ 3500 3200
NoConn ~ 3400 3200
NoConn ~ 3300 3200
NoConn ~ 3200 3200
NoConn ~ 3100 3200
NoConn ~ 2500 2800
NoConn ~ 2500 2600
NoConn ~ 2500 2500
NoConn ~ 2500 2400
$Comp
L GND #PWR21
U 1 1 51857A05
P 3900 3400
F 0 "#PWR21" H 3900 3400 30  0001 C CNN
F 1 "GND" H 3900 3330 30  0001 C CNN
	1    3900 3400
	1    0    0    -1  
$EndComp
$Comp
L GNDSTITCH G1
U 1 1 518579F3
P 4250 3300
F 0 "G1" H 4250 3400 60  0000 C CNN
F 1 "GNDSTITCH" H 4250 3200 60  0000 C CNN
	1    4250 3300
	1    0    0    -1  
$EndComp
NoConn ~ 3900 1400
NoConn ~ 3700 1400
NoConn ~ 3600 1400
NoConn ~ 3500 1400
NoConn ~ 3400 1400
$Comp
L C C8
U 1 1 51857993
P 4900 1300
F 0 "C8" H 4950 1400 50  0000 L CNN
F 1 "22pF" H 4950 1200 50  0000 L CNN
	1    4900 1300
	1    0    0    -1  
$EndComp
$Comp
L +3.3V #PWR23
U 1 1 5185798B
P 4600 900
F 0 "#PWR23" H 4600 860 30  0001 C CNN
F 1 "+3.3V" H 4600 1010 30  0000 C CNN
	1    4600 900 
	1    0    0    -1  
$EndComp
$Comp
L INDUCTOR L1
U 1 1 51857967
P 4600 1400
F 0 "L1" V 4550 1400 40  0000 C CNN
F 1 "33nH" V 4700 1400 40  0000 C CNN
	1    4600 1400
	1    0    0    -1  
$EndComp
$Comp
L ANTENNA X1
U 1 1 5185791C
P 5300 1800
F 0 "X1" H 5300 1950 60  0000 C CNN
F 1 "ANTENNA" H 5300 1550 60  0000 C CNN
	1    5300 1800
	1    0    0    -1  
$EndComp
$Comp
L GND #PWR15
U 1 1 51857124
P 2600 5700
F 0 "#PWR15" H 2600 5700 30  0001 C CNN
F 1 "GND" H 2600 5630 30  0001 C CNN
	1    2600 5700
	1    0    0    -1  
$EndComp
$Comp
L GND #PWR14
U 1 1 51857121
P 2200 5700
F 0 "#PWR14" H 2200 5700 30  0001 C CNN
F 1 "GND" H 2200 5630 30  0001 C CNN
	1    2200 5700
	1    0    0    -1  
$EndComp
$Comp
L GND #PWR12
U 1 1 5185711E
P 1800 5200
F 0 "#PWR12" H 1800 5200 30  0001 C CNN
F 1 "GND" H 1800 5130 30  0001 C CNN
	1    1800 5200
	1    0    0    -1  
$EndComp
$Comp
L GND #PWR10
U 1 1 5185711A
P 1400 5200
F 0 "#PWR10" H 1400 5200 30  0001 C CNN
F 1 "GND" H 1400 5130 30  0001 C CNN
	1    1400 5200
	1    0    0    -1  
$EndComp
$Comp
L GND #PWR17
U 1 1 5185709B
P 2900 5700
F 0 "#PWR17" H 2900 5700 30  0001 C CNN
F 1 "GND" H 2900 5630 30  0001 C CNN
	1    2900 5700
	1    0    0    -1  
$EndComp
NoConn ~ 4200 4700
NoConn ~ 4200 4900
NoConn ~ 4200 4800
$Comp
L +3.3V #PWR16
U 1 1 51856F81
P 2900 4300
F 0 "#PWR16" H 2900 4260 30  0001 C CNN
F 1 "+3.3V" H 2900 4410 30  0000 C CNN
	1    2900 4300
	1    0    0    -1  
$EndComp
$Comp
L GND #PWR22
U 1 1 51856F5A
P 4300 5300
F 0 "#PWR22" H 4300 5300 30  0001 C CNN
F 1 "GND" H 4300 5230 30  0001 C CNN
	1    4300 5300
	1    0    0    -1  
$EndComp
$Comp
L C C5
U 1 1 51856F12
P 2200 5400
F 0 "C5" H 2250 5500 50  0000 L CNN
F 1 "0.1uF" H 2250 5300 50  0000 L CNN
	1    2200 5400
	-1   0    0    -1  
$EndComp
$Comp
L C C4
U 1 1 51856EF9
P 1800 4900
F 0 "C4" H 1850 5000 50  0000 L CNN
F 1 "10nF" H 1850 4800 50  0000 L CNN
	1    1800 4900
	-1   0    0    -1  
$EndComp
$Comp
L C C2
U 1 1 51856EBD
P 1400 4900
F 0 "C2" H 1450 5000 50  0000 L CNN
F 1 "0.1uF" H 1450 4800 50  0000 L CNN
	1    1400 4900
	-1   0    0    -1  
$EndComp
$Comp
L C C6
U 1 1 51856E9F
P 2600 5400
F 0 "C6" H 2650 5500 50  0000 L CNN
F 1 "2.2nF" H 2650 5300 50  0000 L CNN
F 4 "50V" H 2550 5300 60  0000 R CNN "Voltage"
	1    2600 5400
	-1   0    0    -1  
$EndComp
$Comp
L GND #PWR18
U 1 1 51856B28
P 2900 7400
F 0 "#PWR18" H 2900 7400 30  0001 C CNN
F 1 "GND" H 2900 7330 30  0001 C CNN
	1    2900 7400
	1    0    0    -1  
$EndComp
$Comp
L GND #PWR20
U 1 1 51856B19
P 3500 7400
F 0 "#PWR20" H 3500 7400 30  0001 C CNN
F 1 "GND" H 3500 7330 30  0001 C CNN
	1    3500 7400
	1    0    0    -1  
$EndComp
$Comp
L C C7
U 1 1 51856ADC
P 2900 7100
F 0 "C7" H 2950 7200 50  0000 L CNN
F 1 "0.1uF" H 2950 7000 50  0000 L CNN
	1    2900 7100
	-1   0    0    -1  
$EndComp
$Comp
L +3.3V #PWR19
U 1 1 51856ABE
P 3400 6400
F 0 "#PWR19" H 3400 6360 30  0001 C CNN
F 1 "+3.3V" H 3400 6510 30  0000 C CNN
	1    3400 6400
	1    0    0    -1  
$EndComp
Text Label 3300 7100 2    60   ~ 0
MISO
Text Label 3300 6900 2    60   ~ 0
SCK
Text Label 3300 6600 2    60   ~ 0
MOSI
Text Label 3300 6500 2    60   ~ 0
CS
$Comp
L USD_CARD J1
U 1 1 518569B7
P 4000 6750
F 0 "J1" H 3950 7100 60  0000 C CNN
F 1 "USD_CARD" V 4100 6700 60  0000 C CNN
	1    4000 6750
	1    0    0    -1  
$EndComp
$Comp
L MPU9150 U2
U 1 1 518569A7
P 3600 4800
F 0 "U2" H 3600 5300 60  0000 C CNN
F 1 "MPU9150" V 3600 4800 60  0000 C CNN
	1    3600 4800
	1    0    0    -1  
$EndComp
$Comp
L VENUS638FLP U1
U 1 1 5185693B
P 3500 2300
F 0 "U1" H 3500 2350 60  0000 C CNN
F 1 "VENUS638FLP" H 3500 2250 60  0000 C CNN
	1    3500 2300
	1    0    0    -1  
$EndComp
$EndSCHEMATC
