EESchema Schematic File Version 2  date 4/14/2013 5:12:04 PM
LIBS:power
LIBS:device
LIBS:transistors
LIBS:conn
LIBS:linear
LIBS:regul
LIBS:74xx
LIBS:cmos4000
LIBS:adc-dac
LIBS:memory
LIBS:xilinx
LIBS:special
LIBS:microcontrollers
LIBS:dsp
LIBS:microchip
LIBS:analog_switches
LIBS:motorola
LIBS:texas
LIBS:intel
LIBS:audio
LIBS:interface
LIBS:digital-audio
LIBS:philips
LIBS:display
LIBS:cypress
LIBS:siliconi
LIBS:opto
LIBS:atmel
LIBS:contrib
LIBS:valves
LIBS:AeroDyne
LIBS:SiPMCosmicRay-cache
EELAYER 25  0
EELAYER END
$Descr A3 16535 11700
encoding utf-8
Sheet 1 1
Title "Cosmic Ray Detector"
Date "14 apr 2013"
Rev "1A"
Comp "Ethan Harstad"
Comment1 "https://github.com/ethanharstad/SiPMCosmicRay"
Comment2 ""
Comment3 ""
Comment4 ""
$EndDescr
Text Notes 1400 9500 0    60   ~ 0
Compensation
Text Notes 1000 8300 0    60   ~ 0
PID Compensation
Text Notes 1200 5700 0    60   ~ 0
Voltage/Current Limits and Thermistor Compensation
Text Notes 5000 8750 0    60   ~ 0
Temp Good\nTEC Current\nTEC Voltage\nGround
Connection ~ 4300 7900
Wire Wire Line
	4000 7900 4300 7900
Wire Wire Line
	4300 7900 4400 7900
Connection ~ 4100 7700
Wire Wire Line
	4000 7700 4100 7700
Wire Wire Line
	4100 7700 4400 7700
Wire Wire Line
	4500 8800 4200 8800
Wire Wire Line
	4200 8800 4200 7800
Wire Wire Line
	4500 9000 4400 9000
Wire Wire Line
	4400 9000 4400 9100
Wire Wire Line
	3900 10100 3900 10200
Wire Wire Line
	3400 10700 3400 10800
Wire Wire Line
	2400 10700 2400 10800
Wire Wire Line
	2400 10200 2400 10300
Wire Wire Line
	2400 9500 2400 9600
Wire Wire Line
	2400 9600 2400 9700
Wire Wire Line
	1900 10800 1900 10700
Wire Wire Line
	1400 10200 1400 10300
Connection ~ 1000 9600
Wire Wire Line
	1900 10300 1900 9600
Wire Wire Line
	1900 9600 1700 9600
Wire Wire Line
	1700 9600 1400 9600
Wire Wire Line
	1400 9600 1000 9600
Wire Wire Line
	1000 9500 1000 9600
Wire Wire Line
	1000 9600 1000 9700
Wire Wire Line
	6300 7700 6200 7700
Wire Wire Line
	6200 8000 6300 8000
Wire Wire Line
	6200 7900 6300 7900
Connection ~ 9400 6400
Wire Wire Line
	9500 6400 9400 6400
Wire Wire Line
	9400 6400 9000 6400
Wire Wire Line
	9000 6400 8900 6400
Wire Wire Line
	9500 8500 9400 8500
Wire Wire Line
	9400 8500 9200 8500
Wire Wire Line
	9400 8100 9400 8500
Wire Wire Line
	9400 8500 9400 8600
Connection ~ 8500 8500
Wire Wire Line
	8500 8400 8500 8500
Connection ~ 8300 8600
Wire Wire Line
	8300 8600 8200 8600
Wire Wire Line
	8600 8500 8500 8500
Wire Wire Line
	8500 8500 8300 8500
Wire Wire Line
	8300 8500 8200 8500
Wire Wire Line
	8200 7900 8300 7900
Wire Wire Line
	8300 7900 8300 7800
Wire Wire Line
	7200 9100 7300 9100
Wire Wire Line
	7300 7000 7200 7000
Wire Wire Line
	8200 5800 8300 5800
Wire Wire Line
	8300 5800 8300 5700
Wire Wire Line
	8200 7300 8300 7300
Wire Wire Line
	8300 7300 8300 7400
Connection ~ 9000 6400
Connection ~ 8300 6600
Wire Wire Line
	8200 6600 8300 6600
Wire Wire Line
	8200 6700 8300 6700
Wire Wire Line
	8300 6700 8300 6600
Wire Wire Line
	8300 6600 8300 6500
Wire Wire Line
	8300 6500 8300 6400
Wire Wire Line
	8300 6400 8300 6200
Wire Wire Line
	8400 6400 8300 6400
Wire Wire Line
	8300 6400 8200 6400
Wire Wire Line
	5000 8300 5000 8400
Wire Wire Line
	2900 7900 2900 7800
Wire Wire Line
	2200 8400 2200 8500
Wire Wire Line
	2200 8500 2200 8800
Wire Wire Line
	1600 8800 1700 8800
Wire Wire Line
	1900 8500 2200 8500
Wire Wire Line
	2200 8500 2300 8500
Connection ~ 3400 8500
Wire Wire Line
	3050 8800 3400 8800
Wire Wire Line
	3400 8800 3400 8500
Wire Wire Line
	1400 8500 1000 8500
Wire Wire Line
	1000 8500 900  8500
Wire Wire Line
	3500 7200 3400 7200
Wire Wire Line
	3400 7200 3400 7100
Connection ~ 2900 6500
Wire Wire Line
	3400 6600 3400 6500
Connection ~ 2400 5800
Wire Wire Line
	2900 5900 2900 5800
Wire Wire Line
	2900 5800 2400 5800
Wire Wire Line
	2400 5800 1900 5800
Wire Wire Line
	1900 5800 1400 5800
Wire Wire Line
	1400 5800 1000 5800
Wire Wire Line
	1000 5800 900  5800
Wire Wire Line
	4300 7100 4400 7100
Wire Wire Line
	2400 6600 2400 6500
Wire Wire Line
	2400 6500 2400 6400
Connection ~ 1900 5800
Wire Wire Line
	2400 5800 2400 5900
Connection ~ 1900 7200
Wire Wire Line
	2000 7200 1900 7200
Wire Wire Line
	1900 6400 1900 6500
Wire Wire Line
	1900 6500 1900 6600
Wire Wire Line
	1900 7900 1900 7800
Wire Wire Line
	1400 7200 1400 7100
Wire Wire Line
	1400 5800 1400 5900
Wire Wire Line
	4300 7000 4400 7000
Wire Wire Line
	4300 6900 4400 6900
Wire Wire Line
	4300 6800 4400 6800
Wire Wire Line
	4300 6700 4400 6700
Wire Wire Line
	1000 5900 1000 5800
Wire Wire Line
	1000 5800 1000 5700
Connection ~ 5000 5800
Wire Wire Line
	5000 6300 5000 5800
Wire Wire Line
	6000 5800 5600 5800
Wire Wire Line
	5600 5800 5550 5800
Wire Wire Line
	4600 6300 4600 6400
Wire Wire Line
	10700 1400 10600 1400
Wire Wire Line
	10600 1400 10600 1300
Wire Wire Line
	15600 1200 12900 1200
Wire Wire Line
	12900 1200 12900 2200
Wire Wire Line
	13700 2800 13100 2800
Wire Wire Line
	13100 2800 12600 2800
Wire Wire Line
	13600 3500 13600 3350
Wire Wire Line
	14200 3000 14200 3100
Wire Wire Line
	12600 3500 12600 3350
Connection ~ 11500 2400
Wire Wire Line
	11500 2500 11500 2400
Wire Wire Line
	12100 2900 12100 3000
Connection ~ 12100 1400
Wire Wire Line
	12100 1500 12100 1400
Wire Wire Line
	11500 2000 11500 1900
Wire Wire Line
	14200 2200 14200 1400
Connection ~ 13600 2100
Wire Wire Line
	14300 1600 13600 1600
Wire Wire Line
	12600 2800 12600 2950
Wire Wire Line
	15000 2600 14900 2600
Wire Wire Line
	14900 2600 14700 2600
Wire Wire Line
	14800 2100 14900 2100
Connection ~ 14900 2600
Wire Wire Line
	13100 2900 13100 2800
Connection ~ 13100 2800
Wire Wire Line
	14300 2100 13600 2100
Connection ~ 13600 2400
Wire Wire Line
	14700 1600 14900 1600
Wire Wire Line
	14900 1600 14900 2100
Wire Wire Line
	14900 2100 14900 2600
Connection ~ 14900 2100
Wire Wire Line
	11300 2400 11500 2400
Wire Wire Line
	11500 2400 12100 2400
Wire Wire Line
	12100 2400 12600 2400
Wire Wire Line
	11500 1400 11500 1500
Connection ~ 11500 1400
Wire Wire Line
	12100 1900 12100 2000
Wire Wire Line
	11500 2900 11500 3000
Wire Wire Line
	12100 2500 12100 2400
Connection ~ 12100 2400
Wire Wire Line
	13100 3400 13100 3500
Wire Wire Line
	13600 1600 13600 2100
Wire Wire Line
	13600 2100 13600 2400
Wire Wire Line
	13600 2400 13600 2950
Wire Wire Line
	13700 2400 13600 2400
Wire Wire Line
	13600 2400 13200 2400
Wire Wire Line
	14200 1400 12100 1400
Wire Wire Line
	12100 1400 11500 1400
Wire Wire Line
	11500 1400 11300 1400
Wire Wire Line
	15500 2600 15600 2600
Wire Wire Line
	6000 6400 6000 6300
Wire Wire Line
	4600 5900 4600 5800
Wire Wire Line
	4600 5800 5000 5800
Wire Wire Line
	5000 5800 5050 5800
Wire Wire Line
	5600 6300 5600 5800
Connection ~ 5600 5800
Wire Wire Line
	1000 6400 1000 6300
Connection ~ 1000 5800
Wire Wire Line
	1400 6600 1400 6500
Wire Wire Line
	1400 6500 1400 6400
Wire Wire Line
	1500 6500 1400 6500
Connection ~ 1400 6500
Wire Wire Line
	1900 7300 1900 7200
Wire Wire Line
	1900 7200 1900 7100
Wire Wire Line
	1900 5800 1900 5900
Connection ~ 1400 5800
Wire Wire Line
	2000 6500 1900 6500
Connection ~ 1900 6500
Wire Wire Line
	2400 7200 2400 7100
Wire Wire Line
	2500 6500 2400 6500
Connection ~ 2400 6500
Wire Wire Line
	2900 7100 2900 7300
Wire Wire Line
	2900 6600 2900 6500
Wire Wire Line
	2900 6500 2900 6400
Wire Wire Line
	2900 6500 3400 6500
Wire Wire Line
	3400 6500 3500 6500
Connection ~ 3400 6500
Wire Wire Line
	3500 8500 3400 8500
Wire Wire Line
	3400 8500 3300 8500
Wire Wire Line
	1100 8800 1000 8800
Wire Wire Line
	1000 8800 1000 8500
Connection ~ 1000 8500
Wire Wire Line
	2650 8800 2200 8800
Wire Wire Line
	2200 8800 2100 8800
Connection ~ 2200 8500
Connection ~ 2200 8800
Wire Wire Line
	2800 8500 2900 8500
Wire Wire Line
	4300 7200 4400 7200
Wire Wire Line
	4300 7300 4400 7300
Wire Wire Line
	4300 7400 4400 7400
Wire Wire Line
	4300 7500 4400 7500
Wire Wire Line
	4300 7600 4400 7600
Wire Wire Line
	5600 8400 5600 8300
Wire Wire Line
	6200 6600 6300 6600
Wire Wire Line
	6200 6700 6300 6700
Wire Wire Line
	6200 6800 6300 6800
Wire Wire Line
	6200 6900 6300 6900
Connection ~ 8300 6400
Wire Wire Line
	8200 6500 8300 6500
Connection ~ 8300 6500
Wire Wire Line
	9400 6400 9400 7100
Wire Wire Line
	9000 6900 9000 7000
Wire Wire Line
	7200 6100 7300 6100
Wire Wire Line
	6200 7000 6300 7000
Wire Wire Line
	6200 7100 6300 7100
Wire Wire Line
	6200 7200 6300 7200
Wire Wire Line
	6200 7300 6300 7300
Wire Wire Line
	7200 8200 7300 8200
Wire Wire Line
	8300 9500 8300 9400
Wire Wire Line
	8300 9400 8200 9400
Wire Wire Line
	8200 8800 8300 8800
Wire Wire Line
	8300 8800 8300 8700
Wire Wire Line
	8300 8700 8300 8600
Wire Wire Line
	8300 8600 8300 8500
Connection ~ 8300 8500
Wire Wire Line
	8200 8700 8300 8700
Connection ~ 8300 8700
Wire Wire Line
	8500 7800 8500 7900
Connection ~ 9400 8500
Wire Wire Line
	9000 6400 9000 6500
Wire Wire Line
	9400 9100 9400 9000
Wire Wire Line
	6200 7800 6300 7800
Wire Wire Line
	6300 7400 6200 7400
Wire Wire Line
	1000 10200 1000 10300
Wire Wire Line
	1400 9700 1400 9600
Connection ~ 1400 9600
Wire Wire Line
	1400 10800 1400 10700
Wire Wire Line
	1700 9700 1700 9600
Connection ~ 1700 9600
Wire Wire Line
	2400 9600 2900 9600
Wire Wire Line
	2900 9600 2900 10300
Connection ~ 2400 9600
Wire Wire Line
	2900 10800 2900 10700
Wire Wire Line
	3400 10200 3400 10300
Wire Wire Line
	3900 10800 3900 10700
Wire Wire Line
	6000 5700 6000 5800
Wire Wire Line
	6000 5800 6000 5900
Connection ~ 6000 5800
Wire Wire Line
	4300 7900 4300 8700
Wire Wire Line
	4300 8700 4500 8700
Wire Wire Line
	4100 7700 4100 8900
Wire Wire Line
	4100 8900 4500 8900
Wire Wire Line
	4000 7800 4200 7800
Wire Wire Line
	4200 7800 4400 7800
Connection ~ 4200 7800
Text Label 4000 7900 2    60   ~ 0
TMPGD
Text Label 4000 7800 2    60   ~ 0
ITEC
Text Label 4000 7700 2    60   ~ 0
VTEC
$Comp
L GND #PWR?
U 1 1 516B2359
P 4400 9100
F 0 "#PWR?" H 4400 9100 30  0001 C CNN
F 1 "GND" H 4400 9030 30  0001 C CNN
	1    4400 9100
	1    0    0    -1  
$EndComp
$Comp
L CONN_4 TP?
U 1 1 516B2352
P 4850 8850
F 0 "TP?" V 4800 8850 50  0000 C CNN
F 1 "TECOut" V 4900 8850 50  0000 C CNN
	1    4850 8850
	1    0    0    -1  
$EndComp
Text Label 3900 10100 1    60   ~ 0
Freq
$Comp
L GND #PWR?
U 1 1 516B21B6
P 3900 10800
F 0 "#PWR?" H 3900 10800 30  0001 C CNN
F 1 "GND" H 3900 10730 30  0001 C CNN
	1    3900 10800
	1    0    0    -1  
$EndComp
$Comp
L R R?
U 1 1 516B21AE
P 3900 10450
F 0 "R?" V 3980 10450 50  0000 C CNN
F 1 "R" V 3900 10450 50  0000 C CNN
	1    3900 10450
	1    0    0    -1  
$EndComp
Text Label 3400 10200 1    60   ~ 0
SoftStart
$Comp
L GND #PWR?
U 1 1 516B21A1
P 3400 10800
F 0 "#PWR?" H 3400 10800 30  0001 C CNN
F 1 "GND" H 3400 10730 30  0001 C CNN
	1    3400 10800
	1    0    0    -1  
$EndComp
$Comp
L C C?
U 1 1 516B219A
P 3400 10500
F 0 "C?" H 3450 10600 50  0000 L CNN
F 1 "0.1uF" H 3450 10400 50  0000 L CNN
	1    3400 10500
	-1   0    0    -1  
$EndComp
$Comp
L GND #PWR?
U 1 1 516B2167
P 2900 10800
F 0 "#PWR?" H 2900 10800 30  0001 C CNN
F 1 "GND" H 2900 10730 30  0001 C CNN
	1    2900 10800
	1    0    0    -1  
$EndComp
$Comp
L GND #PWR?
U 1 1 516B2164
P 2400 10800
F 0 "#PWR?" H 2400 10800 30  0001 C CNN
F 1 "GND" H 2400 10730 30  0001 C CNN
	1    2400 10800
	1    0    0    -1  
$EndComp
Text Label 2400 9500 1    60   ~ 0
CompSw
$Comp
L R R?
U 1 1 516B2145
P 2400 9950
F 0 "R?" V 2480 9950 50  0000 C CNN
F 1 "R" V 2400 9950 50  0000 C CNN
	1    2400 9950
	1    0    0    -1  
$EndComp
$Comp
L C C?
U 1 1 516B213F
P 2900 10500
F 0 "C?" H 2950 10600 50  0000 L CNN
F 1 "C" H 2950 10400 50  0000 L CNN
	1    2900 10500
	-1   0    0    -1  
$EndComp
$Comp
L C C?
U 1 1 516B2139
P 2400 10500
F 0 "C?" H 2450 10600 50  0000 L CNN
F 1 "C" H 2450 10400 50  0000 L CNN
	1    2400 10500
	-1   0    0    -1  
$EndComp
Text Label 1700 9700 3    60   ~ 0
CompOsc
$Comp
L GND #PWR?
U 1 1 516B20F9
P 1900 10800
F 0 "#PWR?" H 1900 10800 30  0001 C CNN
F 1 "GND" H 1900 10730 30  0001 C CNN
	1    1900 10800
	1    0    0    -1  
$EndComp
$Comp
L GND #PWR?
U 1 1 516B20F5
P 1400 10800
F 0 "#PWR?" H 1400 10800 30  0001 C CNN
F 1 "GND" H 1400 10730 30  0001 C CNN
	1    1400 10800
	1    0    0    -1  
$EndComp
$Comp
L C C?
U 1 1 516B2073
P 1900 10500
F 0 "C?" H 1950 10600 50  0000 L CNN
F 1 "C" H 1950 10400 50  0000 L CNN
	1    1900 10500
	-1   0    0    -1  
$EndComp
$Comp
L C C?
U 1 1 516B206A
P 1400 10500
F 0 "C?" H 1450 10600 50  0000 L CNN
F 1 "C" H 1450 10400 50  0000 L CNN
	1    1400 10500
	-1   0    0    -1  
$EndComp
$Comp
L R R?
U 1 1 516B2059
P 1400 9950
F 0 "R?" V 1480 9950 50  0000 C CNN
F 1 "R" V 1400 9950 50  0000 C CNN
	1    1400 9950
	1    0    0    -1  
$EndComp
Text Label 1000 10300 3    60   ~ 0
SyncIn
$Comp
L R R?
U 1 1 516B2006
P 1000 9950
F 0 "R?" V 1080 9950 50  0000 C CNN
F 1 "R" V 1000 9950 50  0000 C CNN
	1    1000 9950
	1    0    0    -1  
$EndComp
$Comp
L +5V #PWR?
U 1 1 516B2002
P 1000 9500
F 0 "#PWR?" H 1000 9590 20  0001 C CNN
F 1 "+5V" H 1000 9590 30  0000 C CNN
	1    1000 9500
	1    0    0    -1  
$EndComp
Text Label 6300 7400 0    60   ~ 0
SyncIn
NoConn ~ 6200 7500
NoConn ~ 6200 7600
Text Label 6300 7700 0    60   ~ 0
SoftStart
Text Label 6300 7800 0    60   ~ 0
Freq
Text Label 6300 8000 0    60   ~ 0
CompSw
Text Label 6300 7900 0    60   ~ 0
CompOsc
$Comp
L GND #PWR?
U 1 1 516B1D10
P 9400 9100
F 0 "#PWR?" H 9400 9100 30  0001 C CNN
F 1 "GND" H 9400 9030 30  0001 C CNN
	1    9400 9100
	1    0    0    -1  
$EndComp
Text Label 9500 8500 0    60   ~ 0
SFB
$Comp
L C C?
U 1 1 516B1CE5
P 9400 8800
F 0 "C?" H 9450 8900 50  0000 L CNN
F 1 "0.1uF" H 9450 8700 50  0000 L CNN
F 4 "16V" H 9350 8700 60  0000 R CNN "Voltage"
F 5 "X5R" H 9350 8900 60  0000 R CNN "Dielectric"
	1    9400 8800
	-1   0    0    -1  
$EndComp
Text Label 8500 7800 1    60   ~ 0
SW
$Comp
L R R?
U 1 1 516B1CAB
P 8500 8150
F 0 "R?" V 8580 8150 50  0000 C CNN
F 1 "R" V 8500 8150 50  0000 C CNN
	1    8500 8150
	1    0    0    -1  
$EndComp
$Comp
L INDUCTOR L?
U 1 1 516B1CA5
P 8900 8500
F 0 "L?" V 8850 8500 40  0000 C CNN
F 1 "INDUCTOR" V 9000 8500 40  0000 C CNN
	1    8900 8500
	0    -1   -1   0   
$EndComp
$Comp
L GND #PWR?
U 1 1 516B1C9A
P 8300 9500
F 0 "#PWR?" H 8300 9500 30  0001 C CNN
F 1 "GND" H 8300 9430 30  0001 C CNN
	1    8300 9500
	1    0    0    -1  
$EndComp
$Comp
L +5V #PWR?
U 1 1 516B1C96
P 8300 7800
F 0 "#PWR?" H 8300 7890 20  0001 C CNN
F 1 "+5V" H 8300 7890 30  0000 C CNN
	1    8300 7800
	1    0    0    -1  
$EndComp
Text Label 7200 9100 2    60   ~ 0
SNGate
Text Label 7200 8200 2    60   ~ 0
SPGate
Text Label 6300 7300 0    60   ~ 0
SNGate
Text Label 6300 7200 0    60   ~ 0
SW
Text Label 6300 7100 0    60   ~ 0
SPGate
Text Label 6300 7000 0    60   ~ 0
SFB
$Comp
L MOS_DUAL_PN Q?
U 1 1 516B1AFB
P 7750 8650
F 0 "Q?" H 7750 9550 60  0000 C CNN
F 1 "AO4629" H 7750 7750 60  0000 C CNN
	1    7750 8650
	1    0    0    -1  
$EndComp
$Comp
L +5V #PWR?
U 1 1 516B1AF1
P 8300 5700
F 0 "#PWR?" H 8300 5790 20  0001 C CNN
F 1 "+5V" H 8300 5790 30  0000 C CNN
	1    8300 5700
	1    0    0    -1  
$EndComp
$Comp
L GND #PWR?
U 1 1 516B1AE5
P 8300 7400
F 0 "#PWR?" H 8300 7400 30  0001 C CNN
F 1 "GND" H 8300 7330 30  0001 C CNN
	1    8300 7400
	1    0    0    -1  
$EndComp
$Comp
L GND #PWR?
U 1 1 516B1AE0
P 9000 7000
F 0 "#PWR?" H 9000 7000 30  0001 C CNN
F 1 "GND" H 9000 6930 30  0001 C CNN
	1    9000 7000
	1    0    0    -1  
$EndComp
$Comp
L TEC TC?
U 1 1 516B1AC3
P 9400 7600
F 0 "TC?" H 9400 7650 60  0000 C CNN
F 1 "TEC" H 9400 7550 60  0000 C CNN
	1    9400 7600
	0    1    1    0   
$EndComp
Text Label 9500 6400 0    60   ~ 0
CS
$Comp
L C C?
U 1 1 516B1A88
P 9000 6700
F 0 "C?" H 9050 6800 50  0000 L CNN
F 1 "0.1uF" H 9050 6600 50  0000 L CNN
F 4 "16V" H 8950 6600 60  0000 R CNN "Voltage"
F 5 "X5R" H 8950 6800 60  0000 R CNN "Dielectric"
	1    9000 6700
	-1   0    0    -1  
$EndComp
Text Label 8300 6200 1    60   ~ 0
LFB
$Comp
L R R?
U 1 1 516B1A5E
P 8650 6400
F 0 "R?" V 8730 6400 50  0000 C CNN
F 1 "R" V 8650 6400 50  0000 C CNN
	1    8650 6400
	0    -1   -1   0   
$EndComp
Text Label 6300 6900 0    60   ~ 0
CS
Text Label 6300 6800 0    60   ~ 0
LNGate
Text Label 6300 6700 0    60   ~ 0
LFB
Text Label 6300 6600 0    60   ~ 0
LPGate
Text Label 7200 7000 2    60   ~ 0
LNGate
Text Label 7200 6100 2    60   ~ 0
LPGate
$Comp
L FERRITE FB?
U 1 1 516B1948
P 11000 2400
F 0 "FB?" H 10900 2500 60  0000 C CNN
F 1 "FERRITE" H 11100 2300 60  0000 C CNN
	1    11000 2400
	1    0    0    -1  
$EndComp
$Comp
L MOS_DUAL_PN Q?
U 1 1 516AF482
P 7750 6550
F 0 "Q?" H 7750 7450 60  0000 C CNN
F 1 "AO4629" H 7750 5650 60  0000 C CNN
	1    7750 6550
	1    0    0    -1  
$EndComp
$Comp
L GND #PWR?
U 1 1 516A55FC
P 5600 8400
F 0 "#PWR?" H 5600 8400 30  0001 C CNN
F 1 "GND" H 5600 8330 30  0001 C CNN
	1    5600 8400
	1    0    0    -1  
$EndComp
$Comp
L GND #PWR?
U 1 1 516A55F8
P 5000 8400
F 0 "#PWR?" H 5000 8400 30  0001 C CNN
F 1 "GND" H 5000 8330 30  0001 C CNN
	1    5000 8400
	1    0    0    -1  
$EndComp
$Comp
L GND #PWR?
U 1 1 516A5308
P 2900 7900
F 0 "#PWR?" H 2900 7900 30  0001 C CNN
F 1 "GND" H 2900 7830 30  0001 C CNN
	1    2900 7900
	1    0    0    -1  
$EndComp
Text Label 4300 7600 2    60   ~ 0
In2P
Text Label 4300 7500 2    60   ~ 0
Out2
Text Label 4300 7400 2    60   ~ 0
In2N
Text Label 4300 7300 2    60   ~ 0
Out1
Text Label 4300 7200 2    60   ~ 0
In1N
Text Label 2200 8400 1    60   ~ 0
In2N
Text Label 3500 8500 0    60   ~ 0
Out2
$Comp
L C C?
U 1 1 516A5271
P 3100 8500
F 0 "C?" H 3150 8600 50  0000 L CNN
F 1 "C" H 3150 8400 50  0000 L CNN
	1    3100 8500
	0    -1   -1   0   
$EndComp
$Comp
L R R?
U 1 1 516A526B
P 2550 8500
F 0 "R?" V 2630 8500 50  0000 C CNN
F 1 "R" V 2550 8500 50  0000 C CNN
	1    2550 8500
	0    -1   -1   0   
$EndComp
$Comp
L C C?
U 1 1 516A5268
P 2850 8800
F 0 "C?" H 2900 8900 50  0000 L CNN
F 1 "C" H 2900 8700 50  0000 L CNN
	1    2850 8800
	0    -1   -1   0   
$EndComp
$Comp
L C C?
U 1 1 516A525D
P 1900 8800
F 0 "C?" H 1950 8900 50  0000 L CNN
F 1 "C" H 1950 8700 50  0000 L CNN
	1    1900 8800
	0    -1   -1   0   
$EndComp
$Comp
L R R?
U 1 1 516A5256
P 1350 8800
F 0 "R?" V 1430 8800 50  0000 C CNN
F 1 "R" V 1350 8800 50  0000 C CNN
	1    1350 8800
	0    -1   -1   0   
$EndComp
$Comp
L R R?
U 1 1 516A524B
P 1650 8500
F 0 "R?" V 1730 8500 50  0000 C CNN
F 1 "R" V 1650 8500 50  0000 C CNN
	1    1650 8500
	0    -1   -1   0   
$EndComp
Text Label 900  8500 2    60   ~ 0
Out1
Text Label 3500 7200 0    60   ~ 0
Out1
Text Label 3500 6500 0    60   ~ 0
In1N
$Comp
L R R?
U 1 1 516A5054
P 3400 6850
F 0 "R?" V 3480 6850 50  0000 C CNN
F 1 "R" V 3400 6850 50  0000 C CNN
	1    3400 6850
	1    0    0    -1  
$EndComp
$Comp
L R R?
U 1 1 516A4FF5
P 2900 6850
F 0 "R?" V 2980 6850 50  0000 C CNN
F 1 "R" V 2900 6850 50  0000 C CNN
	1    2900 6850
	1    0    0    -1  
$EndComp
$Comp
L R R?
U 1 1 516A4FED
P 2900 6150
F 0 "R?" V 2980 6150 50  0000 C CNN
F 1 "R" V 2900 6150 50  0000 C CNN
	1    2900 6150
	1    0    0    -1  
$EndComp
Text Label 4300 7100 2    60   ~ 0
In1P
Text Label 2500 6500 0    60   ~ 0
In1P
$Comp
L GND #PWR?
U 1 1 516A4F79
P 2400 7200
F 0 "#PWR?" H 2400 7200 30  0001 C CNN
F 1 "GND" H 2400 7130 30  0001 C CNN
	1    2400 7200
	1    0    0    -1  
$EndComp
$Comp
L R R?
U 1 1 516A4F6C
P 2400 6850
F 0 "R?" V 2480 6850 50  0000 C CNN
F 1 "R" V 2400 6850 50  0000 C CNN
	1    2400 6850
	1    0    0    -1  
$EndComp
$Comp
L R R?
U 1 1 516A4F65
P 2400 6150
F 0 "R?" V 2480 6150 50  0000 C CNN
F 1 "R" V 2400 6150 50  0000 C CNN
	1    2400 6150
	1    0    0    -1  
$EndComp
Text Label 2000 7200 0    60   ~ 0
ILimH
Text Label 2000 6500 0    60   ~ 0
ILimC
$Comp
L GND #PWR?
U 1 1 516A4D04
P 1900 7900
F 0 "#PWR?" H 1900 7900 30  0001 C CNN
F 1 "GND" H 1900 7830 30  0001 C CNN
	1    1900 7900
	1    0    0    -1  
$EndComp
$Comp
L R R?
U 1 1 516A4D00
P 1900 7550
F 0 "R?" V 1980 7550 50  0000 C CNN
F 1 "R" V 1900 7550 50  0000 C CNN
	1    1900 7550
	1    0    0    -1  
$EndComp
$Comp
L R R?
U 1 1 516A4CFE
P 1900 6850
F 0 "R?" V 1980 6850 50  0000 C CNN
F 1 "R" V 1900 6850 50  0000 C CNN
	1    1900 6850
	1    0    0    -1  
$EndComp
$Comp
L R R?
U 1 1 516A4CFA
P 1900 6150
F 0 "R?" V 1980 6150 50  0000 C CNN
F 1 "R" V 1900 6150 50  0000 C CNN
	1    1900 6150
	1    0    0    -1  
$EndComp
Text Label 1500 6500 0    60   ~ 0
VLim
$Comp
L GND #PWR?
U 1 1 516A4CB1
P 1400 7200
F 0 "#PWR?" H 1400 7200 30  0001 C CNN
F 1 "GND" H 1400 7130 30  0001 C CNN
	1    1400 7200
	1    0    0    -1  
$EndComp
Text Label 900  5800 2    60   ~ 0
Ref
Text Label 4300 7000 2    60   ~ 0
ILimH
Text Label 4300 6900 2    60   ~ 0
ILimC
Text Label 4300 6800 2    60   ~ 0
VLim
Text Label 4300 6700 2    60   ~ 0
Ref
$Comp
L R R?
U 1 1 516A4C54
P 1400 6850
F 0 "R?" V 1480 6850 50  0000 C CNN
F 1 "R" V 1400 6850 50  0000 C CNN
	1    1400 6850
	1    0    0    -1  
$EndComp
$Comp
L R R?
U 1 1 516A4C51
P 1400 6150
F 0 "R?" V 1480 6150 50  0000 C CNN
F 1 "R" V 1400 6150 50  0000 C CNN
	1    1400 6150
	1    0    0    -1  
$EndComp
$Comp
L GND #PWR?
U 1 1 516A4AD3
P 1000 6400
F 0 "#PWR?" H 1000 6400 30  0001 C CNN
F 1 "GND" H 1000 6330 30  0001 C CNN
	1    1000 6400
	1    0    0    -1  
$EndComp
$Comp
L C C?
U 1 1 516A4ACE
P 1000 6100
F 0 "C?" H 1050 6200 50  0000 L CNN
F 1 "0.1uF" H 1050 6000 50  0000 L CNN
F 4 "16V" H 950 6000 60  0000 R CNN "Voltage"
F 5 "X5R" H 950 6200 60  0000 R CNN "Dielectric"
	1    1000 6100
	-1   0    0    -1  
$EndComp
$Comp
L THERMISTOR RT1
U 1 1 516A4A3D
P 2900 7550
F 0 "RT1" V 3000 7600 50  0000 C CNN
F 1 "THERMISTOR" V 2800 7550 50  0000 C CNN
	1    2900 7550
	1    0    0    -1  
$EndComp
$Comp
L +2.5V #PWR?
U 1 1 516A4A03
P 1000 5700
F 0 "#PWR?" H 1000 5650 20  0001 C CNN
F 1 "+2.5V" H 1000 5800 30  0000 C CNN
	1    1000 5700
	1    0    0    -1  
$EndComp
$Comp
L +5V #PWR?
U 1 1 516A4999
P 6000 5700
F 0 "#PWR?" H 6000 5790 20  0001 C CNN
F 1 "+5V" H 6000 5790 30  0000 C CNN
	1    6000 5700
	1    0    0    -1  
$EndComp
$Comp
L GND #PWR?
U 1 1 516A498C
P 4600 6400
F 0 "#PWR?" H 4600 6400 30  0001 C CNN
F 1 "GND" H 4600 6330 30  0001 C CNN
	1    4600 6400
	1    0    0    -1  
$EndComp
$Comp
L GND #PWR?
U 1 1 516A4950
P 6000 6400
F 0 "#PWR?" H 6000 6400 30  0001 C CNN
F 1 "GND" H 6000 6330 30  0001 C CNN
	1    6000 6400
	1    0    0    -1  
$EndComp
$Comp
L C C?
U 1 1 516A4947
P 4600 6100
F 0 "C?" H 4650 6200 50  0000 L CNN
F 1 "0.1uF" H 4650 6000 50  0000 L CNN
F 4 "16V" H 4550 6000 60  0000 R CNN "Voltage"
F 5 "X5R" H 4550 6200 60  0000 R CNN "Dielectric"
	1    4600 6100
	-1   0    0    -1  
$EndComp
$Comp
L C C?
U 1 1 516A493F
P 6000 6100
F 0 "C?" H 6050 6200 50  0000 L CNN
F 1 "0.1uF" H 6050 6000 50  0000 L CNN
F 4 "16V" H 5950 6000 60  0000 R CNN "Voltage"
F 5 "X5R" H 5950 6200 60  0000 R CNN "Dielectric"
	1    6000 6100
	-1   0    0    -1  
$EndComp
$Comp
L R R?
U 1 1 516A492C
P 5300 5800
F 0 "R?" V 5380 5800 50  0000 C CNN
F 1 "R" V 5300 5800 50  0000 C CNN
	1    5300 5800
	0    -1   -1   0   
$EndComp
$Comp
L ADN8831 U?
U 1 1 516A491E
P 5300 7300
F 0 "U?" H 5300 7350 60  0000 C CNN
F 1 "ADN8831" H 5300 7250 60  0000 C CNN
	1    5300 7300
	1    0    0    -1  
$EndComp
Text Notes 11400 2300 0    60   ~ 0
Bias Supply
Text Notes 11400 1300 0    60   ~ 0
Power Supply
$Comp
L +5VA #PWR?
U 1 1 516A45B3
P 10600 1300
F 0 "#PWR?" H 10600 1430 20  0001 C CNN
F 1 "+5VA" H 10600 1400 30  0000 C CNN
	1    10600 1300
	1    0    0    -1  
$EndComp
Text Notes 13700 3400 0    60   ~ 0
Optional:\nOmit if not using fast mode
$Comp
L C C?
U 1 1 516A4449
P 14500 1600
F 0 "C?" H 14550 1700 50  0000 L CNN
F 1 "C" H 14550 1500 50  0000 L CNN
F 4 "16V" H 14450 1500 60  0000 R CNN "Voltage"
F 5 "X5R" H 14450 1700 60  0000 R CNN "Dielectric"
	1    14500 1600
	0    -1   1    0   
$EndComp
$Comp
L GND #PWR?
U 1 1 516A4392
P 13600 3500
F 0 "#PWR?" H 13600 3500 30  0001 C CNN
F 1 "GND" H 13600 3430 30  0001 C CNN
	1    13600 3500
	1    0    0    -1  
$EndComp
$Comp
L C C?
U 1 1 516A4385
P 12600 3150
F 0 "C?" H 12650 3250 50  0000 L CNN
F 1 "C" H 12650 3050 50  0000 L CNN
F 4 "?V" H 12550 3050 60  0000 R CNN "Voltage"
F 5 "X5R" H 12550 3250 60  0000 R CNN "Dielectric"
	1    12600 3150
	-1   0    0    -1  
$EndComp
$Comp
L C C?
U 1 1 516A436B
P 13600 3150
F 0 "C?" H 13650 3250 50  0000 L CNN
F 1 "100pF" H 13650 3050 50  0000 L CNN
F 4 "50V" H 13550 3050 60  0000 R CNN "Voltage"
F 5 "X5R" H 13550 3250 60  0000 R CNN "Dielectric"
	1    13600 3150
	-1   0    0    -1  
$EndComp
$Comp
L GND #PWR?
U 1 1 516A4296
P 12600 3500
F 0 "#PWR?" H 12600 3500 30  0001 C CNN
F 1 "GND" H 12600 3430 30  0001 C CNN
	1    12600 3500
	1    0    0    -1  
$EndComp
$Comp
L GND #PWR?
U 1 1 516A4294
P 13100 3500
F 0 "#PWR?" H 13100 3500 30  0001 C CNN
F 1 "GND" H 13100 3430 30  0001 C CNN
	1    13100 3500
	1    0    0    -1  
$EndComp
$Comp
L GND #PWR?
U 1 1 516A4290
P 14200 3100
F 0 "#PWR?" H 14200 3100 30  0001 C CNN
F 1 "GND" H 14200 3030 30  0001 C CNN
	1    14200 3100
	1    0    0    -1  
$EndComp
$Comp
L GND #PWR?
U 1 1 516A41EE
P 12100 3000
F 0 "#PWR?" H 12100 3000 30  0001 C CNN
F 1 "GND" H 12100 2930 30  0001 C CNN
	1    12100 3000
	1    0    0    -1  
$EndComp
$Comp
L GND #PWR?
U 1 1 516A41EA
P 11500 3000
F 0 "#PWR?" H 11500 3000 30  0001 C CNN
F 1 "GND" H 11500 2930 30  0001 C CNN
	1    11500 3000
	1    0    0    -1  
$EndComp
$Comp
L C C?
U 1 1 516A41D3
P 12100 2700
F 0 "C?" H 12150 2800 50  0000 L CNN
F 1 "0.01uF" H 12150 2600 50  0000 L CNN
F 4 "50V" H 12050 2600 60  0000 R CNN "Voltage"
F 5 "X5R" H 12050 2800 60  0000 R CNN "Dielectric"
	1    12100 2700
	-1   0    0    -1  
$EndComp
$Comp
L C C?
U 1 1 516A41CD
P 11500 2700
F 0 "C?" H 11550 2800 50  0000 L CNN
F 1 "0.1uF" H 11550 2600 50  0000 L CNN
F 4 "50V" H 11450 2600 60  0000 R CNN "Voltage"
F 5 "X5R" H 11450 2800 60  0000 R CNN "Dielectric"
	1    11500 2700
	-1   0    0    -1  
$EndComp
$Comp
L GND #PWR?
U 1 1 516A419D
P 11500 2000
F 0 "#PWR?" H 11500 2000 30  0001 C CNN
F 1 "GND" H 11500 1930 30  0001 C CNN
	1    11500 2000
	1    0    0    -1  
$EndComp
$Comp
L GND #PWR?
U 1 1 516A419A
P 12100 2000
F 0 "#PWR?" H 12100 2000 30  0001 C CNN
F 1 "GND" H 12100 1930 30  0001 C CNN
	1    12100 2000
	1    0    0    -1  
$EndComp
$Comp
L C C?
U 1 1 516A418F
P 12100 1700
F 0 "C?" H 12150 1800 50  0000 L CNN
F 1 "0.01uF" H 12150 1600 50  0000 L CNN
F 4 "16V" H 12050 1600 60  0000 R CNN "Voltage"
F 5 "X5R" H 12050 1800 60  0000 R CNN "Dielectric"
	1    12100 1700
	-1   0    0    -1  
$EndComp
$Comp
L C C?
U 1 1 516A4151
P 11500 1700
F 0 "C?" H 11550 1800 50  0000 L CNN
F 1 "0.1uF" H 11550 1600 50  0000 L CNN
F 4 "16V" H 11450 1600 60  0000 R CNN "Voltage"
F 5 "X5R" H 11450 1800 60  0000 R CNN "Dielectric"
	1    11500 1700
	-1   0    0    -1  
$EndComp
$Comp
L FERRITE FB?
U 1 1 516A4134
P 11000 1400
F 0 "FB?" H 10900 1500 60  0000 C CNN
F 1 "FERRITE" H 11100 1300 60  0000 C CNN
	1    11000 1400
	1    0    0    -1  
$EndComp
$Comp
L PHOTODIODE D?
U 1 1 516A410B
P 12900 2400
F 0 "D?" H 12900 2700 60  0000 C CNN
F 1 "uFB10035-X18" H 12900 2600 60  0000 C CNN
	1    12900 2400
	-1   0    0    1   
$EndComp
$Comp
L R R?
U 1 1 516A40F0
P 15250 2600
F 0 "R?" V 15330 2600 50  0000 C CNN
F 1 "R" V 15250 2600 50  0000 C CNN
	1    15250 2600
	0    -1   -1   0   
$EndComp
$Comp
L R R?
U 1 1 516A40C1
P 14550 2100
F 0 "R?" V 14630 2100 50  0000 C CNN
F 1 "R" V 14550 2100 50  0000 C CNN
	1    14550 2100
	0    -1   -1   0   
$EndComp
$Comp
L R R?
U 1 1 516A40B1
P 13100 3150
F 0 "R?" V 13180 3150 50  0000 C CNN
F 1 "R" V 13100 3150 50  0000 C CNN
	1    13100 3150
	-1   0    0    -1  
$EndComp
$Comp
L OPA381 U?
U 1 1 516A409E
P 14200 2600
F 0 "U?" H 14500 2800 60  0000 C CNN
F 1 "OPA380" H 14500 2400 60  0000 C CNN
	1    14200 2600
	1    0    0    -1  
$EndComp
$EndSCHEMATC
