EESchema Schematic File Version 2  date 4/17/2013 7:49:12 PM
LIBS:power
LIBS:device
LIBS:transistors
LIBS:conn
LIBS:linear
LIBS:regul
LIBS:74xx
LIBS:cmos4000
LIBS:adc-dac
LIBS:memory
LIBS:xilinx
LIBS:special
LIBS:microcontrollers
LIBS:dsp
LIBS:microchip
LIBS:analog_switches
LIBS:motorola
LIBS:texas
LIBS:intel
LIBS:audio
LIBS:interface
LIBS:digital-audio
LIBS:philips
LIBS:display
LIBS:cypress
LIBS:siliconi
LIBS:opto
LIBS:atmel
LIBS:contrib
LIBS:valves
LIBS:AeroDyne
LIBS:SiPMCosmicRay-cache
EELAYER 25  0
EELAYER END
$Descr A4 11700 8267
encoding utf-8
Sheet 1 6
Title "Cosmic Ray Detector"
Date "17 apr 2013"
Rev "1A"
Comp "Ethan Harstad"
Comment1 "https://github.com/ethanharstad/SiPMCosmicRay"
Comment2 "CC-BY-SA 3.0 License"
Comment3 ""
Comment4 ""
$EndDescr
$Sheet
S 6100 3450 1000 1000
U 516F2FCF
F0 "Coincidence" 60
F1 "Coincidence.sch" 60
$EndSheet
$Sheet
S 7600 3450 1000 1000
U 516B8E64
F0 "Power" 60
F1 "Power.sch" 60
$EndSheet
$Sheet
S 3100 4200 1000 1000
U 516B8E0E
F0 "Detector2" 60
F1 "Detector2.sch" 60
$EndSheet
$Sheet
S 3100 2700 1000 1000
U 516B74CB
F0 "Detector1" 60
F1 "Detector1.sch" 60
F2 "HS" O R 4100 2800 60 
F3 "Det" O R 4100 2900 60 
$EndSheet
$Sheet
S 4600 3450 1000 1000
U 516B5437
F0 "Cooler" 60
F1 "PeltierCooler.sch" 60
$EndSheet
Text Notes 9900 6400 0    60   ~ 12
Unlabelled Components:
Text Notes 9900 6500 0    60   ~ 0
Capacitors - 16V X5R\nResistors - 1/10W 10%
$EndSCHEMATC
