EESchema Schematic File Version 2  date 4/14/2013 10:33:29 PM
LIBS:power
LIBS:device
LIBS:transistors
LIBS:conn
LIBS:linear
LIBS:regul
LIBS:74xx
LIBS:cmos4000
LIBS:adc-dac
LIBS:memory
LIBS:xilinx
LIBS:special
LIBS:microcontrollers
LIBS:dsp
LIBS:microchip
LIBS:analog_switches
LIBS:motorola
LIBS:texas
LIBS:intel
LIBS:audio
LIBS:interface
LIBS:digital-audio
LIBS:philips
LIBS:display
LIBS:cypress
LIBS:siliconi
LIBS:opto
LIBS:atmel
LIBS:contrib
LIBS:valves
LIBS:AeroDyne
LIBS:SiPMCosmicRay-cache
EELAYER 25  0
EELAYER END
$Descr A4 11700 8267
encoding utf-8
Sheet 1 3
Title "Cosmic Ray Detector"
Date "15 apr 2013"
Rev "1A"
Comp "Ethan Harstad"
Comment1 "https://github.com/ethanharstad/SiPMCosmicRay"
Comment2 "CC-BY-SA 3.0 License"
Comment3 ""
Comment4 ""
$EndDescr
$Sheet
S 6100 2100 1000 1000
U 516B74CB
F0 "Detectors" 60
F1 "Detectors.sch" 60
$EndSheet
$Sheet
S 3900 2150 1000 1000
U 516B5437
F0 "Cooler" 60
F1 "PeltierCooler.sch" 60
$EndSheet
Text Notes 1900 1650 0    60   ~ 12
Unlabelled Components:
Text Notes 1900 1750 0    60   ~ 0
Capacitors - 16V X5R\nResistors - 1/10W 10%
$EndSCHEMATC
